<?xml version="1.0" encoding="UTF-8"?>

<!-- generated on 2025-12-04 21:23:26 by Eclipse SUMO netedit Version 1.24.0
-->

<routes xmlns:xsi="http://www.w3.org/2001/XMLSchema-instance" xsi:noNamespaceSchemaLocation="http://sumo.dlr.de/xsd/routes_file.xsd">
    <!-- Vehicles, persons and containers (sorted by depart) -->
    <flow id="f_0" begin="0.00" from="E1" to="E17" via="E1.38 E3 E4 E4.11 E9 E9.19 E14" end="3600.00" vehsPerHour="1"/>
</routes>
