<?xml version="1.0" encoding="UTF-8"?>

<!-- generated on 2025-12-13 00:01:56 by Eclipse SUMO netedit Version 1.24.0
-->

<routes xmlns:xsi="http://www.w3.org/2001/XMLSchema-instance" xsi:noNamespaceSchemaLocation="http://sumo.dlr.de/xsd/routes_file.xsd">
    <!-- Vehicles, persons and containers (sorted by depart) -->
    <flow id="f_0" begin="0.00" from="E3" to="E2.163" via="-E6.153 -E40 E2.163 E3 E3.100 -E4" end="3600.00" vehsPerHour="1800"/>
    <flow id="f_1" begin="0.00" from="E3" to="E2.163" via="-E14 E16 E19 E18 -E12 -E2.24 -E2.67 E4 -E7.103" end="3600.00" vehsPerHour="1800"/>
    <flow id="f_2" begin="0.00" from="-E6" to="-E3.97" via="-E7.103 E2.24 E15 -E3" end="3600.00" vehsPerHour="1800"/>
    <flow id="f_3" begin="0.00" from="-E2" to="-E3.97" via="-E8 E7.85 -E6.153 -E40 E10 E14" end="3600.00" vehsPerHour="1800"/>
</routes>