<?xml version="1.0" encoding="UTF-8"?>

<!-- generated on 2025-12-03 00:55:10 by Eclipse SUMO netedit Version 1.24.0
<neteditConfiguration xmlns:xsi="http://www.w3.org/2001/XMLSchema-instance" xsi:noNamespaceSchemaLocation="http://sumo.dlr.de/xsd/neteditConfiguration.xsd">

    <input>
        <sumocfg-file value="C:\Traffic Light\traffic_light\Map test\2025-netedit\Netedit_testrun.sumocfg"/>
        <route-files value="C:\Traffic Light\traffic_light\Map test\2025-netedit\Netedit_testrun.rou.xml"/>
        <sumo-net-file value="C:\Traffic Light\traffic_light\Map test\2025-netedit\Netedit_requirement.net.xml"/>
    </input>

    <output>
        <output-file value="C:\Traffic Light\traffic_light\Map test\2025-netedit\Netedit_requirement.net.xml"/>
    </output>

    <processing>
        <offset.disable-normalization value="true"/>
    </processing>

    <junctions>
        <no-turnarounds value="true"/>
    </junctions>

    <netedit>
        <new-network value="false"/>
    </netedit>

</neteditConfiguration>
-->

<net version="1.20" junctionCornerDetail="5" limitTurnSpeed="5.50" xmlns:xsi="http://www.w3.org/2001/XMLSchema-instance" xsi:noNamespaceSchemaLocation="http://sumo.dlr.de/xsd/net_file.xsd">

    <location netOffset="0.00,0.00" convBoundary="-80.01,-82.93,299.35,84.64" origBoundary="10000000000.00,10000000000.00,-10000000000.00,-10000000000.00" projParameter="!"/>

    <edge id=":J0_0" function="internal">
        <lane id=":J0_0_0" index="0" speed="3.65" length="4.67" shape="-36.65,38.90 -37.47,40.08 -38.27,40.47 -39.07,40.06 -39.85,38.85"/>
    </edge>
    <edge id=":J1_0" function="internal">
        <lane id=":J1_0_0" index="0" speed="3.65" length="4.67" shape="-38.64,-43.48 -37.83,-44.67 -37.02,-45.06 -36.23,-44.64 -35.44,-43.43"/>
    </edge>
    <edge id=":J2_0" function="internal">
        <lane id=":J2_0_0" index="0" speed="3.65" length="4.67" shape="-80.03,8.00 -81.22,7.18 -81.61,6.38 -81.20,5.58 -79.99,4.80"/>
    </edge>
    <edge id=":J24_0" function="internal">
        <lane id=":J24_0_0" index="0" speed="3.65" length="4.67" shape="35.08,56.88 34.27,58.07 33.47,58.47 32.67,58.06 31.88,56.85"/>
    </edge>
    <edge id=":J27_0" function="internal">
        <lane id=":J27_0_0" index="0" speed="3.65" length="4.67" shape="-4.22,57.83 -5.02,59.03 -5.81,59.44 -6.62,59.04 -7.42,57.84"/>
    </edge>
    <edge id=":clusterJ10_J7_J8_J9_0" function="internal">
        <lane id=":clusterJ10_J7_J8_J9_0_0" index="0" speed="6.57" length="9.12" shape="-30.53,8.61 -33.02,8.97 -34.81,10.02 -35.90,11.76 -36.29,14.20"/>
    </edge>
    <edge id=":clusterJ10_J7_J8_J9_1" function="internal">
        <lane id=":clusterJ10_J7_J8_J9_1_0" index="0" speed="13.89" length="14.48" shape="-30.53,8.61 -45.01,8.47"/>
    </edge>
    <edge id=":clusterJ10_J7_J8_J9_2" function="internal">
        <lane id=":clusterJ10_J7_J8_J9_2_0" index="0" speed="7.99" length="4.30" shape="-30.53,8.61 -34.41,8.06 -34.73,7.86"/>
    </edge>
    <edge id=":clusterJ10_J7_J8_J9_3" function="internal">
        <lane id=":clusterJ10_J7_J8_J9_3_0" index="0" speed="3.69" length="1.49" shape="-30.53,8.61 -31.77,7.79"/>
    </edge>
    <edge id=":clusterJ10_J7_J8_J9_16" function="internal">
        <lane id=":clusterJ10_J7_J8_J9_16_0" index="0" speed="7.99" length="10.05" shape="-34.73,7.86 -37.16,6.38 -38.78,3.58 -39.28,-0.36"/>
    </edge>
    <edge id=":clusterJ10_J7_J8_J9_17" function="internal">
        <lane id=":clusterJ10_J7_J8_J9_17_0" index="0" speed="3.69" length="3.33" shape="-31.77,7.79 -32.18,6.96 -31.77,6.14 -30.53,5.31"/>
    </edge>
    <edge id=":clusterJ10_J7_J8_J9_4" function="internal">
        <lane id=":clusterJ10_J7_J8_J9_4_0" index="0" speed="6.47" length="9.03" shape="-36.08,-0.31 -35.76,2.15 -34.73,3.91 -32.99,4.96 -30.53,5.31"/>
    </edge>
    <edge id=":clusterJ10_J7_J8_J9_5" function="internal">
        <lane id=":clusterJ10_J7_J8_J9_5_0" index="0" speed="13.89" length="14.51" shape="-36.08,-0.31 -36.29,14.20"/>
    </edge>
    <edge id=":clusterJ10_J7_J8_J9_6" function="internal">
        <lane id=":clusterJ10_J7_J8_J9_6_0" index="0" speed="8.03" length="4.11" shape="-36.08,-0.31 -36.68,3.58 -36.78,3.73"/>
    </edge>
    <edge id=":clusterJ10_J7_J8_J9_7" function="internal">
        <lane id=":clusterJ10_J7_J8_J9_7_0" index="0" speed="3.65" length="1.44" shape="-36.08,-0.31 -36.89,0.88"/>
    </edge>
    <edge id=":clusterJ10_J7_J8_J9_18" function="internal">
        <lane id=":clusterJ10_J7_J8_J9_18_0" index="0" speed="8.03" length="10.17" shape="-36.78,3.73 -38.37,6.33 -41.15,7.97 -45.01,8.47"/>
    </edge>
    <edge id=":clusterJ10_J7_J8_J9_19" function="internal">
        <lane id=":clusterJ10_J7_J8_J9_19_0" index="0" speed="3.65" length="3.23" shape="-36.89,0.88 -37.70,1.27 -38.49,0.86 -39.28,-0.36"/>
    </edge>
    <edge id=":clusterJ10_J7_J8_J9_8" function="internal">
        <lane id=":clusterJ10_J7_J8_J9_8_0" index="0" speed="6.54" length="9.12" shape="-44.97,5.27 -42.51,4.95 -40.74,3.90 -39.66,2.13 -39.28,-0.36"/>
    </edge>
    <edge id=":clusterJ10_J7_J8_J9_9" function="internal">
        <lane id=":clusterJ10_J7_J8_J9_9_0" index="0" speed="13.89" length="14.43" shape="-44.97,5.27 -30.53,5.31"/>
    </edge>
    <edge id=":clusterJ10_J7_J8_J9_10" function="internal">
        <lane id=":clusterJ10_J7_J8_J9_10_0" index="0" speed="8.00" length="4.03" shape="-44.97,5.27 -41.12,5.88 -41.00,5.95"/>
    </edge>
    <edge id=":clusterJ10_J7_J8_J9_11" function="internal">
        <lane id=":clusterJ10_J7_J8_J9_11_0" index="0" speed="3.65" length="1.44" shape="-44.97,5.27 -43.78,6.09"/>
    </edge>
    <edge id=":clusterJ10_J7_J8_J9_20" function="internal">
        <lane id=":clusterJ10_J7_J8_J9_20_0" index="0" speed="8.00" length="10.17" shape="-41.00,5.95 -38.39,7.56 -36.78,10.34 -36.29,14.20"/>
    </edge>
    <edge id=":clusterJ10_J7_J8_J9_21" function="internal">
        <lane id=":clusterJ10_J7_J8_J9_21_0" index="0" speed="3.65" length="3.23" shape="-43.78,6.09 -43.39,6.89 -43.80,7.69 -45.01,8.47"/>
    </edge>
    <edge id=":clusterJ10_J7_J8_J9_12" function="internal">
        <lane id=":clusterJ10_J7_J8_J9_12_0" index="0" speed="6.51" length="9.04" shape="-39.49,14.15 -39.80,11.69 -40.83,9.93 -42.56,8.85 -45.01,8.47"/>
    </edge>
    <edge id=":clusterJ10_J7_J8_J9_13" function="internal">
        <lane id=":clusterJ10_J7_J8_J9_13_0" index="0" speed="13.89" length="14.51" shape="-39.49,14.15 -39.28,-0.36"/>
    </edge>
    <edge id=":clusterJ10_J7_J8_J9_14" function="internal">
        <lane id=":clusterJ10_J7_J8_J9_14_0" index="0" speed="8.08" length="4.09" shape="-39.49,14.15 -38.88,10.29 -38.79,10.13"/>
    </edge>
    <edge id=":clusterJ10_J7_J8_J9_15" function="internal">
        <lane id=":clusterJ10_J7_J8_J9_15_0" index="0" speed="3.65" length="1.44" shape="-39.49,14.15 -38.67,12.96"/>
    </edge>
    <edge id=":clusterJ10_J7_J8_J9_22" function="internal">
        <lane id=":clusterJ10_J7_J8_J9_22_0" index="0" speed="8.08" length="10.21" shape="-38.79,10.13 -37.19,7.52 -34.40,5.87 -30.53,5.31"/>
    </edge>
    <edge id=":clusterJ10_J7_J8_J9_23" function="internal">
        <lane id=":clusterJ10_J7_J8_J9_23_0" index="0" speed="3.65" length="3.23" shape="-38.67,12.96 -37.87,12.58 -37.07,12.99 -36.29,14.20"/>
    </edge>
    <edge id=":clusterJ13_J20_J3_0" function="internal">
        <lane id=":clusterJ13_J20_J3_0_0" index="0" speed="6.78" length="7.39" shape="15.64,12.24 14.79,10.59 13.55,9.41 11.91,8.71 9.89,8.48"/>
    </edge>
    <edge id=":clusterJ13_J20_J3_1" function="internal">
        <lane id=":clusterJ13_J20_J3_1_0" index="0" speed="12.03" length="11.03" shape="15.64,12.24 14.64,9.23 14.16,6.88 14.32,4.54 15.23,1.56"/>
    </edge>
    <edge id=":clusterJ13_J20_J3_2" function="internal">
        <lane id=":clusterJ13_J20_J3_2_0" index="0" speed="6.70" length="6.97" shape="9.88,5.27 11.70,5.04 13.19,4.34 14.37,3.18 15.23,1.56"/>
    </edge>
    <edge id=":clusterJ14_J15_J21_0" function="internal">
        <lane id=":clusterJ14_J15_J21_0_0" index="0" speed="7.57" length="8.73" shape="36.25,-19.04 36.52,-16.48 37.27,-14.43 38.49,-12.88 40.19,-11.83"/>
    </edge>
    <edge id=":clusterJ14_J15_J21_1" function="internal">
        <lane id=":clusterJ14_J15_J21_1_0" index="0" speed="8.53" length="8.42" shape="28.61,-12.19 30.57,-13.87 31.96,-15.57 32.79,-17.28 33.05,-19.00"/>
    </edge>
    <edge id=":clusterJ14_J15_J21_2" function="internal">
        <lane id=":clusterJ14_J15_J21_2_0" index="0" speed="9.51" length="12.07" shape="28.61,-12.19 30.76,-13.23 33.40,-13.52 36.55,-13.05 40.19,-11.83"/>
    </edge>
    <edge id=":clusterJ16_J17_J25_0" function="internal">
        <lane id=":clusterJ16_J17_J25_0_0" index="0" speed="7.09" length="7.62" shape="58.05,7.53 56.06,7.76 54.40,8.49 53.06,9.72 52.06,11.44"/>
    </edge>
    <edge id=":clusterJ16_J17_J25_1" function="internal">
        <lane id=":clusterJ16_J17_J25_1_0" index="0" speed="6.64" length="6.70" shape="52.87,0.79 53.72,2.33 54.86,3.43 56.31,4.09 58.05,4.32"/>
    </edge>
    <edge id=":clusterJ16_J17_J25_2" function="internal">
        <lane id=":clusterJ16_J17_J25_2_0" index="0" speed="11.04" length="11.11" shape="52.87,0.79 53.80,3.77 53.89,6.13 53.27,8.48 52.06,11.44"/>
    </edge>
    <edge id=":clusterJ18_J19_J23_0" function="internal">
        <lane id=":clusterJ18_J19_J23_0_0" index="0" speed="7.20" length="6.57" shape="38.77,25.80 37.25,26.91 36.17,28.15 35.51,29.52 35.28,31.02"/>
    </edge>
    <edge id=":clusterJ18_J19_J23_1" function="internal">
        <lane id=":clusterJ18_J19_J23_1_0" index="0" speed="8.28" length="9.79" shape="38.77,25.80 36.31,26.96 33.94,27.40 31.67,27.14 29.51,26.16"/>
    </edge>
    <edge id=":clusterJ18_J19_J23_2" function="internal">
        <lane id=":clusterJ18_J19_J23_2_0" index="0" speed="6.80" length="5.77" shape="32.16,31.00 32.00,29.52 31.51,28.22 30.68,27.10 29.51,26.16"/>
    </edge>
    <edge id=":clusterJ22_J50_0" function="internal">
        <lane id=":clusterJ22_J50_0_0" index="0" speed="13.89" length="6.24" shape="32.79,-42.62 32.92,-44.46 33.22,-45.70 33.53,-46.94 33.66,-48.78"/>
    </edge>
    <edge id=":clusterJ22_J50_1" function="internal">
        <lane id=":clusterJ22_J50_1_0" index="0" speed="13.89" length="6.23" shape="36.86,-48.80 36.73,-46.97 36.42,-45.73 36.11,-44.49 35.99,-42.66"/>
    </edge>
    <edge id=":clusterJ26_J43_0" function="internal">
        <lane id=":clusterJ26_J43_0_0" index="0" speed="13.89" length="9.17" shape="105.87,4.13 113.91,3.79"/>
        <lane id=":clusterJ26_J43_0_1" index="1" speed="13.89" length="9.17" shape="105.87,4.13 108.34,4.57 109.91,5.57 111.49,6.57 113.96,6.99"/>
        <lane id=":clusterJ26_J43_0_2" index="2" speed="13.89" length="9.17" shape="105.87,4.13 108.54,5.07 109.91,7.17 111.30,9.27 114.01,10.19"/>
    </edge>
    <edge id=":clusterJ26_J43_3" function="internal">
        <lane id=":clusterJ26_J43_3_0" index="0" speed="13.89" length="7.83" shape="106.52,7.28 113.96,6.99"/>
        <lane id=":clusterJ26_J43_3_1" index="1" speed="13.89" length="7.83" shape="106.52,7.28 108.82,7.68 110.27,8.70 111.71,9.74 114.01,10.19"/>
    </edge>
    <edge id=":clusterJ28_J29_0" function="internal">
        <lane id=":clusterJ28_J29_0_0" index="0" speed="9.06" length="11.22" shape="-10.12,14.97 -12.03,12.17 -14.09,10.16 -16.32,8.97 -18.71,8.57"/>
    </edge>
    <edge id=":clusterJ28_J29_1" function="internal">
        <lane id=":clusterJ28_J29_1_0" index="0" speed="10.17" length="12.76" shape="7.90,8.48 5.47,8.95 3.01,10.34 0.54,12.65 -1.96,15.88"/>
    </edge>
    <edge id=":clusterJ28_J29_2" function="internal">
        <lane id=":clusterJ28_J29_2_0" index="0" speed="13.89" length="26.61" shape="7.90,8.48 -18.71,8.57"/>
    </edge>
    <edge id=":clusterJ30_J40_0" function="internal">
        <lane id=":clusterJ30_J40_0_0" index="0" speed="5.69" length="9.68" shape="78.96,-18.10 78.65,-21.16 77.59,-22.80 75.78,-23.02 73.22,-21.81"/>
    </edge>
    <edge id=":clusterJ30_J40_1" function="internal">
        <lane id=":clusterJ30_J40_1_0" index="0" speed="13.89" length="12.36" shape="78.96,-18.10 78.98,-30.46"/>
    </edge>
    <edge id=":clusterJ31_J36_0" function="internal">
        <lane id=":clusterJ31_J36_0_0" index="0" speed="7.06" length="9.17" shape="54.01,-9.31 52.35,-7.80 51.47,-5.93 51.39,-3.72 52.09,-1.16"/>
    </edge>
    <edge id=":clusterJ31_J36_1" function="internal">
        <lane id=":clusterJ31_J36_1_0" index="0" speed="10.91" length="11.25" shape="45.25,-9.75 47.21,-8.58 49.00,-6.76 50.63,-4.29 52.09,-1.16"/>
    </edge>
    <edge id=":clusterJ33_J35_0" function="internal">
        <lane id=":clusterJ33_J35_0_0" index="0" speed="13.89" length="11.17" shape="83.91,7.56 72.73,7.62"/>
    </edge>
    <edge id=":clusterJ33_J35_1" function="internal">
        <lane id=":clusterJ33_J35_1_0" index="0" speed="6.49" length="9.03" shape="78.27,13.26 77.95,10.81 76.92,9.05 75.18,7.98 72.73,7.62"/>
    </edge>
    <edge id=":clusterJ37_J39_0" function="internal">
        <lane id=":clusterJ37_J39_0_0" index="0" speed="6.53" length="9.00" shape="73.04,4.35 75.46,4.01 77.20,2.96 78.27,1.22 78.66,-1.23"/>
    </edge>
    <edge id=":clusterJ37_J39_1" function="internal">
        <lane id=":clusterJ37_J39_1_0" index="0" speed="13.89" length="11.09" shape="73.04,4.35 84.14,4.30"/>
    </edge>
    <edge id=":clusterJ38_J58_0" function="internal">
        <lane id=":clusterJ38_J58_0_0" index="0" speed="6.53" length="8.93" shape="78.69,-74.96 78.33,-77.39 77.30,-79.14 75.58,-80.21 73.19,-80.61"/>
    </edge>
    <edge id=":clusterJ38_J58_1" function="internal">
        <lane id=":clusterJ38_J58_1_0" index="0" speed="13.89" length="11.00" shape="84.19,-80.40 73.19,-80.61"/>
    </edge>
    <edge id=":clusterJ44_J48_J49_J53_0" function="internal">
        <lane id=":clusterJ44_J48_J49_J53_0_0" index="0" speed="7.69" length="13.29" shape="197.41,-4.18 197.87,-0.76 199.45,1.69 202.15,3.15 205.97,3.64"/>
    </edge>
    <edge id=":clusterJ44_J48_J49_J53_1" function="internal">
        <lane id=":clusterJ44_J48_J49_J53_1_0" index="0" speed="13.89" length="19.89" shape="197.41,-4.18 197.80,0.31 198.75,5.68 199.67,11.05 199.94,15.53"/>
    </edge>
    <edge id=":clusterJ44_J48_J49_J53_2" function="internal">
        <lane id=":clusterJ44_J48_J49_J53_2_0" index="0" speed="6.94" length="10.09" shape="188.51,2.63 190.94,2.17 192.70,0.87 193.79,-1.28 194.21,-4.26"/>
    </edge>
    <edge id=":clusterJ44_J48_J49_J53_3" function="internal">
        <lane id=":clusterJ44_J48_J49_J53_3_0" index="0" speed="13.89" length="17.45" shape="188.51,2.63 205.97,3.64"/>
        <lane id=":clusterJ44_J48_J49_J53_3_1" index="1" speed="13.89" length="17.45" shape="188.56,5.83 205.98,6.84"/>
        <lane id=":clusterJ44_J48_J49_J53_3_2" index="2" speed="13.89" length="17.45" shape="188.61,9.03 205.98,10.04"/>
    </edge>
    <edge id=":clusterJ44_J48_J49_J53_6" function="internal">
        <lane id=":clusterJ44_J48_J49_J53_6_0" index="0" speed="7.93" length="14.80" shape="188.61,9.03 193.73,9.37 197.33,10.56 199.40,12.62 199.94,15.53"/>
    </edge>
    <edge id=":clusterJ55_J57_0" function="internal">
        <lane id=":clusterJ55_J57_0_0" index="0" speed="6.51" length="9.03" shape="95.61,13.04 95.24,10.59 94.17,8.85 92.41,7.82 89.96,7.49"/>
    </edge>
    <edge id=":clusterJ55_J57_1" function="internal">
        <lane id=":clusterJ55_J57_1_0" index="0" speed="7.87" length="13.38" shape="95.61,13.04 96.26,10.68 98.26,8.93 101.62,7.80 106.32,7.29"/>
    </edge>

    <edge id="-E0" from="J1" to="clusterJ10_J7_J8_J9" priority="-1" shape="-37.04,-43.46 -37.85,11.30">
        <lane id="-E0_0" index="0" speed="13.89" length="43.13" shape="-35.44,-43.43 -36.08,-0.31"/>
    </edge>
    <edge id="-E0.54" from="clusterJ10_J7_J8_J9" to="J0" priority="-1" shape="-37.85,11.30 -38.25,38.87">
        <lane id="-E0.54_0" index="0" speed="13.89" length="24.70" shape="-36.29,14.20 -36.65,38.90"/>
    </edge>
    <edge id="-E1" from="clusterJ13_J20_J3" to="clusterJ28_J29" priority="-1" shape="12.00,6.87 -5.32,6.93">
        <lane id="-E1_0" index="0" speed="13.89" length="1.99" shape="9.89,8.48 7.90,8.48"/>
    </edge>
    <edge id="-E1.104" from="clusterJ10_J7_J8_J9" to="J2" priority="-1" shape="-33.80,7.02 -80.01,6.40">
        <lane id="-E1.104_0" index="0" speed="13.89" length="35.03" shape="-45.01,8.47 -80.03,8.00"/>
    </edge>
    <edge id="-E1.17" from="clusterJ28_J29" to="clusterJ10_J7_J8_J9" priority="-1" shape="-5.32,6.93 -33.80,7.02">
        <lane id="-E1.17_0" index="0" speed="13.89" length="11.83" shape="-18.71,8.57 -30.53,8.61"/>
    </edge>
    <edge id="-E10" from="clusterJ28_J29" to="J27" priority="-1" shape="-3.28,14.98 -5.95,18.91 -5.82,57.84">
        <lane id="-E10_0" index="0" speed="13.89" length="42.69" shape="-1.96,15.88 -4.35,19.40 -4.22,57.83"/>
    </edge>
    <edge id="-E16" from="clusterJ22_J50" to="clusterJ44_J48_J49_J53" priority="-1" shape="35.26,-48.79 34.98,-82.93 197.68,-79.85 195.81,-4.22">
        <lane id="-E16_0" index="0" speed="13.89" length="279.03" shape="33.66,-48.78 33.37,-84.56 199.32,-81.42 197.41,-4.18"/>
    </edge>
    <edge id="-E7" from="clusterJ22_J50" to="clusterJ14_J15_J21" priority="-1" shape="34.39,-42.64 34.74,-10.91">
        <lane id="-E7_0" index="0" speed="13.89" length="23.62" shape="35.99,-42.66 36.25,-19.04"/>
    </edge>
    <edge id="-E8" from="J24" to="clusterJ18_J19_J23" priority="-1">
        <lane id="-E8_0" index="0" speed="13.89" length="25.85" shape="31.88,56.85 32.16,31.00"/>
    </edge>
    <edge id="-E9" from="clusterJ55_J57" to="clusterJ26_J43" priority="-1" shape="96.27,8.73 103.72,8.99 109.35,8.78">
        <lane id="-E9_0" index="0" speed="13.89" length="0.20" shape="106.32,7.29 106.52,7.28"/>
    </edge>
    <edge id="-E9.12" from="clusterJ55_J57" to="clusterJ33_J35" priority="-1" shape="95.35,5.84 75.77,6.04">
        <lane id="-E9.12_0" index="0" speed="13.89" length="6.05" shape="89.96,7.49 83.91,7.56"/>
    </edge>
    <edge id="-E9.22" from="clusterJ33_J35" to="clusterJ16_J17_J25" priority="-1" shape="75.77,6.04 55.54,5.91">
        <lane id="-E9.22_0" index="0" speed="13.89" length="14.69" shape="72.73,7.62 58.05,7.53"/>
    </edge>
    <edge id="E0" from="J0" to="clusterJ10_J7_J8_J9" priority="-1" shape="-38.25,38.87 -37.72,2.49">
        <lane id="E0_0" index="0" speed="13.89" length="24.70" shape="-39.85,38.85 -39.49,14.15"/>
    </edge>
    <edge id="E0.36" from="clusterJ10_J7_J8_J9" to="J1" priority="-1" shape="-37.72,2.49 -37.04,-43.46">
        <lane id="E0.36_0" index="0" speed="13.89" length="43.13" shape="-39.28,-0.36 -38.64,-43.48"/>
    </edge>
    <edge id="E1" from="J2" to="clusterJ10_J7_J8_J9" priority="-1" shape="-80.01,6.40 -41.48,6.92">
        <lane id="E1_0" index="0" speed="13.89" length="35.03" shape="-79.99,4.80 -44.97,5.27"/>
    </edge>
    <edge id="E1.38" from="clusterJ10_J7_J8_J9" to="clusterJ13_J20_J3" priority="-1" shape="-41.48,6.92 12.00,6.87">
        <lane id="E1.38_0" index="0" speed="13.89" length="40.41" shape="-30.53,5.31 9.88,5.27"/>
    </edge>
    <edge id="E10" from="J27" to="clusterJ28_J29" priority="-1" shape="-5.82,57.84 -5.97,19.03 -8.73,14.18">
        <lane id="E10_0" index="0" speed="13.89" length="43.55" shape="-7.42,57.84 -7.57,19.46 -10.12,14.97"/>
    </edge>
    <edge id="E11" from="clusterJ30_J40" to="clusterJ31_J36" priority="-1" shape="77.19,-26.31 49.79,-8.47">
        <lane id="E11_0" index="0" speed="13.89" length="22.92" shape="73.22,-21.81 54.01,-9.31"/>
    </edge>
    <edge id="E12" from="J32" to="clusterJ33_J35" priority="-1" shape="79.34,52.34 79.91,10.52">
        <lane id="E12_0" index="0" speed="13.89" length="39.06" shape="77.74,52.32 78.27,13.26"/>
    </edge>
    <edge id="E13" from="clusterJ37_J39" to="clusterJ30_J40" priority="-1" shape="80.23,0.26 80.63,-22.08">
        <lane id="E13_0" index="0" speed="13.89" length="16.88" shape="78.66,-1.23 78.96,-18.10"/>
    </edge>
    <edge id="E13.22" from="clusterJ30_J40" to="clusterJ38_J58" priority="-1" shape="80.63,-22.08 80.28,-76.16">
        <lane id="E13.22_0" index="0" speed="13.89" length="44.50" shape="78.98,-30.46 78.69,-74.96"/>
    </edge>
    <edge id="E14" from="clusterJ26_J43" to="clusterJ44_J48_J49_J53" priority="-1" shape="110.75,11.84 196.46,10.51">
        <lane id="E14_0" index="0" speed="13.89" length="74.61" shape="113.91,3.79 188.51,2.63"/>
        <lane id="E14_1" index="1" speed="13.89" length="74.61" shape="113.96,6.99 188.56,5.83"/>
        <lane id="E14_2" index="2" speed="13.89" length="74.61" shape="114.01,10.19 188.61,9.03"/>
    </edge>
    <edge id="E15" from="clusterJ44_J48_J49_J53" to="J47" priority="-1">
        <lane id="E15_0" index="0" speed="13.89" length="69.37" shape="199.94,15.53 195.31,84.74"/>
    </edge>
    <edge id="E16" from="clusterJ44_J48_J49_J53" to="clusterJ38_J58" priority="-1" shape="195.81,-4.22 197.68,-79.85 82.70,-82.03">
        <lane id="E16_0" index="0" speed="13.89" length="185.91" shape="194.21,-4.26 196.04,-78.28 84.19,-80.40"/>
    </edge>
    <edge id="E16.190" from="clusterJ38_J58" to="clusterJ22_J50" priority="-1" shape="82.70,-82.03 34.98,-82.93 35.26,-48.79">
        <lane id="E16.190_0" index="0" speed="13.89" length="69.10" shape="73.19,-80.61 36.59,-81.30 36.86,-48.80"/>
    </edge>
    <edge id="E17" from="clusterJ44_J48_J49_J53" to="J54" priority="-1" shape="205.98,11.64 299.35,11.58">
        <lane id="E17_0" index="0" speed="13.89" length="93.37" shape="205.97,3.64 299.34,3.58"/>
        <lane id="E17_1" index="1" speed="13.89" length="93.37" shape="205.98,6.84 299.34,6.78"/>
        <lane id="E17_2" index="2" speed="13.89" length="93.37" shape="205.98,10.04 299.35,9.98"/>
    </edge>
    <edge id="E18" from="J56" to="clusterJ55_J57" priority="-1" shape="97.38,31.34 97.20,11.62">
        <lane id="E18_0" index="0" speed="13.89" length="18.32" shape="95.78,31.36 95.61,13.04"/>
    </edge>
    <edge id="E3" from="clusterJ13_J20_J3" to="clusterJ14_J15_J21" priority="-1" shape="16.42,2.94 18.16,-1.69 23.00,-5.99 29.57,-10.91">
        <lane id="E3_0" index="0" speed="13.89" length="19.68" shape="15.23,1.56 16.80,-2.62 21.99,-7.23 28.61,-12.19"/>
    </edge>
    <edge id="E4" from="clusterJ14_J15_J21" to="clusterJ31_J36" priority="-1" shape="39.58,-10.35 45.15,-8.06 49.13,-3.67">
        <lane id="E4_0" index="0" speed="13.89" length="5.47" shape="40.19,-11.83 45.25,-9.75"/>
    </edge>
    <edge id="E4.11" from="clusterJ31_J36" to="clusterJ16_J17_J25" priority="-1" shape="49.13,-3.67 49.55,-3.20 52.02,2.99">
        <lane id="E4.11_0" index="0" speed="13.89" length="2.10" shape="52.09,-1.16 52.87,0.79"/>
    </edge>
    <edge id="E5" from="clusterJ16_J17_J25" to="clusterJ18_J19_J23" priority="-1" shape="50.59,10.81 48.63,15.42 44.37,20.58 37.95,24.43">
        <lane id="E5_0" index="0" speed="13.89" length="20.20" shape="52.06,11.44 50.01,16.26 45.43,21.81 38.77,25.80"/>
    </edge>
    <edge id="E6" from="clusterJ18_J19_J23" to="clusterJ13_J20_J3" priority="-1" shape="30.36,24.81 23.20,20.31 18.25,14.86 16.54,9.94">
        <lane id="E6_0" index="0" speed="13.89" length="20.24" shape="29.51,26.16 22.16,21.55 16.85,15.69 15.64,12.24"/>
    </edge>
    <edge id="E7" from="clusterJ14_J15_J21" to="clusterJ22_J50" priority="-1" shape="34.74,-10.91 34.39,-42.64">
        <lane id="E7_0" index="0" speed="13.89" length="23.62" shape="33.05,-19.00 32.79,-42.62"/>
    </edge>
    <edge id="E8" from="clusterJ18_J19_J23" to="J24" priority="-1" shape="33.72,25.97 33.48,56.87">
        <lane id="E8_0" index="0" speed="13.89" length="25.86" shape="35.28,31.02 35.08,56.88"/>
    </edge>
    <edge id="E9" from="clusterJ16_J17_J25" to="clusterJ37_J39" priority="-1" shape="55.54,5.91 77.09,5.96">
        <lane id="E9_0" index="0" speed="13.89" length="14.99" shape="58.05,4.32 73.04,4.35"/>
    </edge>
    <edge id="E9.19" from="clusterJ37_J39" to="clusterJ26_J43" priority="-1" shape="77.09,5.96 107.96,5.71">
        <lane id="E9.19_0" index="0" speed="13.89" length="21.74" shape="84.14,4.30 105.87,4.13"/>
    </edge>

    <tlLogic id="clusterJ10_J7_J8_J9" type="static" programID="0" offset="0">
        <phase duration="3"  state="rrrrGGggrrrrGGgg"/>
        <phase duration="3"  state="rrrryyyyrrrryyyy"/>
        <phase duration="3"  state="GGggrrrrGGggrrrr"/>
        <phase duration="3"  state="yyyyrrrryyyyrrrr"/>
    </tlLogic>
    <tlLogic id="clusterJ13_J20_J3" type="static" programID="0" offset="0">
        <phase duration="3"  state="GOr"/>
        <phase duration="3"  state="Gyr"/>
        <phase duration="3"  state="GrG"/>
        <phase duration="3"  state="Gry"/>
    </tlLogic>
    <tlLogic id="clusterJ14_J15_J21" type="static" programID="0" offset="0">
        <phase duration="42" state="GGO"/>
        <phase duration="3"  state="yGr"/>
        <phase duration="42" state="rGG"/>
        <phase duration="3"  state="rGy"/>
    </tlLogic>
    <tlLogic id="clusterJ16_J17_J25" type="static" programID="0" offset="0">
        <phase duration="3"  state="GGO"/>
        <phase duration="3"  state="yGr"/>
        <phase duration="3"  state="rGG"/>
        <phase duration="3"  state="rGy"/>
    </tlLogic>
    <tlLogic id="clusterJ18_J19_J23" type="static" programID="0" offset="0">
        <phase duration="3"  state="GOr"/>
        <phase duration="3"  state="Gyr"/>
        <phase duration="3"  state="GrG"/>
        <phase duration="3"  state="Gry"/>
    </tlLogic>
    <tlLogic id="clusterJ30_J40" type="static" programID="0" offset="0">
        <phase duration="6"  state="GG"/>
        <phase duration="3"  state="yy"/>
        <phase duration="5"  state="rr"/>
    </tlLogic>
    <tlLogic id="clusterJ55_J57" type="static" programID="0" offset="0">
        <phase duration="6"  state="GG"/>
        <phase duration="3"  state="yy"/>
        <phase duration="5"  state="rr"/>
    </tlLogic>

    <junction id="J0" type="priority" x="-38.25" y="38.87" incLanes="-E0.54_0" intLanes=":J0_0_0" shape="-38.25,38.87 -35.05,38.92 -38.25,38.87">
        <request index="0" response="0" foes="0" cont="0"/>
    </junction>
    <junction id="J1" type="priority" x="-37.04" y="-43.46" incLanes="E0.36_0" intLanes=":J1_0_0" shape="-37.04,-43.46 -40.24,-43.50 -37.04,-43.46">
        <request index="0" response="0" foes="0" cont="0"/>
    </junction>
    <junction id="J2" type="priority" x="-80.01" y="6.40" incLanes="-E1.104_0" intLanes=":J2_0_0" shape="-80.01,6.40 -80.05,9.60 -80.01,6.40">
        <request index="0" response="0" foes="0" cont="0"/>
    </junction>
    <junction id="J24" type="priority" x="33.48" y="56.87" incLanes="E8_0" intLanes=":J24_0_0" shape="33.48,56.87 30.28,56.84 36.68,56.89">
        <request index="0" response="0" foes="0" cont="0"/>
    </junction>
    <junction id="J27" type="priority" x="-5.82" y="57.84" incLanes="-E10_0" intLanes=":J27_0_0" shape="-5.82,57.84 -9.02,57.85 -2.62,57.83">
        <request index="0" response="0" foes="0" cont="0"/>
    </junction>
    <junction id="J32" type="dead_end" x="79.34" y="52.34" incLanes="" intLanes="" shape="79.34,52.34 76.14,52.30"/>
    <junction id="J47" type="dead_end" x="193.72" y="84.64" incLanes="E15_0" intLanes="" shape="196.91,84.85 193.72,84.64"/>
    <junction id="J54" type="dead_end" x="299.35" y="11.58" incLanes="E17_0 E17_1 E17_2" intLanes="" shape="299.34,1.98 299.35,11.58"/>
    <junction id="J56" type="dead_end" x="97.38" y="31.34" incLanes="" intLanes="" shape="97.38,31.34 94.18,31.37"/>
    <junction id="clusterJ10_J7_J8_J9" type="traffic_light" x="-37.71" y="6.93" incLanes="-E1.17_0 -E0_0 E1_0 E0_0" intLanes=":clusterJ10_J7_J8_J9_0_0 :clusterJ10_J7_J8_J9_1_0 :clusterJ10_J7_J8_J9_16_0 :clusterJ10_J7_J8_J9_17_0 :clusterJ10_J7_J8_J9_4_0 :clusterJ10_J7_J8_J9_5_0 :clusterJ10_J7_J8_J9_18_0 :clusterJ10_J7_J8_J9_19_0 :clusterJ10_J7_J8_J9_8_0 :clusterJ10_J7_J8_J9_9_0 :clusterJ10_J7_J8_J9_20_0 :clusterJ10_J7_J8_J9_21_0 :clusterJ10_J7_J8_J9_12_0 :clusterJ10_J7_J8_J9_13_0 :clusterJ10_J7_J8_J9_22_0 :clusterJ10_J7_J8_J9_23_0" shape="-30.53,10.21 -30.54,3.71 -32.75,3.27 -33.52,2.71 -34.06,1.94 -34.38,0.94 -34.48,-0.29 -40.88,-0.38 -41.35,1.90 -41.92,2.69 -42.71,3.25 -43.72,3.58 -44.94,3.67 -45.03,10.07 -42.81,10.54 -42.04,11.11 -41.50,11.90 -41.18,12.90 -41.09,14.13 -34.69,14.22 -34.20,12.00 -33.62,11.22 -32.81,10.66 -31.78,10.32">
        <request index="0"  response="0000000000100000" foes="1000010000100000" cont="0"/>
        <request index="1"  response="0111000001100000" foes="0111110001100000" cont="0"/>
        <request index="2"  response="0110011101100000" foes="0110011111100000" cont="1"/>
        <request index="3"  response="0100001000010000" foes="0100001000010000" cont="1"/>
        <request index="4"  response="0000000000000000" foes="0100001000001000" cont="0"/>
        <request index="5"  response="0000010000000100" foes="1100011000000111" cont="0"/>
        <request index="6"  response="0111010000000100" foes="0111111000000110" cont="1"/>
        <request index="7"  response="0010000100000100" foes="0010000100000100" cont="1"/>
        <request index="8"  response="0010000000000000" foes="0010000010000100" cont="0"/>
        <request index="9"  response="0110000001110000" foes="0110000001111100" cont="0"/>
        <request index="10" response="0110000001100011" foes="1110000001100111" cont="1"/>
        <request index="11" response="0001000001000010" foes="0001000001000010" cont="1"/>
        <request index="12" response="0000000000000000" foes="0000100001000010" cont="0"/>
        <request index="13" response="0000010000000100" foes="0000011111000110" cont="0"/>
        <request index="14" response="0000010000110100" foes="0000011001111110" cont="1"/>
        <request index="15" response="0000010000100001" foes="0000010000100001" cont="1"/>
    </junction>