<?xml version="1.0" encoding="UTF-8"?>

<!-- generated on 2025-12-12 21:56:27 by Eclipse SUMO netedit Version 1.24.0
<neteditConfiguration xmlns:xsi="http://www.w3.org/2001/XMLSchema-instance" xsi:noNamespaceSchemaLocation="http://sumo.dlr.de/xsd/neteditConfiguration.xsd">

    <input>
        <sumocfg-file value="C:\traffic_light-main\simulationrealtime\resource\Netedit_testrun.sumocfg"/>
        <sumo-net-file value="C:\traffic_light-main\simulationrealtime\resource\Netedit_requirement.net.xml"/>
    </input>

    <output>
        <output-file value="C:\traffic_light-main\simulationrealtime\resource\Netedit_requirement.net.xml"/>
    </output>

    <processing>
        <geometry.min-radius.fix.railways value="false"/>
        <geometry.avoid-overlap value="false"/>
        <geometry.max-grade.fix value="false"/>
        <offset.disable-normalization value="true"/>
        <lefthand value="0"/>
    </processing>

    <junctions>
        <no-turnarounds value="true"/>
        <junctions.corner-detail value="5"/>
        <junctions.limit-turn-speed value="5.50"/>
        <rectangular-lane-cut value="0"/>
    </junctions>

    <pedestrian>
        <walkingareas value="0"/>
    </pedestrian>

    <netedit>
        <ignore.routeelements value="false"/>
    </netedit>

</neteditConfiguration>
-->

<net version="1.20" junctionCornerDetail="5" limitTurnSpeed="5.50" avoidOverlap="0" xmlns:xsi="http://www.w3.org/2001/XMLSchema-instance" xsi:noNamespaceSchemaLocation="http://sumo.dlr.de/xsd/net_file.xsd">

    <location netOffset="0.00,0.00" convBoundary="-80.01,-81.31,299.35,84.64" origBoundary="-10000000000.00,-10000000000.00,10000000000.00,10000000000.00" projParameter="!"/>

    <edge id=":J0_0" function="internal">
        <lane id=":J0_0_0" index="0" speed="3.65" length="4.67" shape="-36.65,38.91 -37.48,40.09 -38.29,40.47 -39.08,40.05 -39.85,38.84"/>
    </edge>
    <edge id=":J1_0" function="internal">
        <lane id=":J1_0_0" index="0" speed="3.65" length="4.67" shape="-38.64,-43.48 -37.83,-44.67 -37.02,-45.06 -36.23,-44.65 -35.44,-43.44"/>
    </edge>
    <edge id=":J2_0" function="internal">
        <lane id=":J2_0_0" index="0" speed="3.65" length="4.67" shape="-80.02,8.00 -81.21,7.19 -81.60,6.38 -81.20,5.59 -79.99,4.80"/>
    </edge>
    <edge id=":J24_0" function="internal">
        <lane id=":J24_0_0" index="0" speed="3.65" length="4.67" shape="35.08,56.87 34.28,58.07 33.48,58.47 32.68,58.07 31.88,56.87"/>
    </edge>
    <edge id=":J27_0" function="internal">
        <lane id=":J27_0_0" index="0" speed="3.65" length="4.67" shape="-4.22,57.84 -5.02,59.04 -5.82,59.44 -6.62,59.04 -7.42,57.84"/>
    </edge>
    <edge id=":clusterJ10_J7_J8_J9_0" function="internal">
        <lane id=":clusterJ10_J7_J8_J9_0_0" index="0" speed="6.55" length="9.07" shape="-30.33,8.45 -32.77,8.77 -34.54,9.80 -35.63,11.55 -36.04,14.02"/>
    </edge>
    <edge id=":clusterJ10_J7_J8_J9_1" function="internal">
        <lane id=":clusterJ10_J7_J8_J9_1_0" index="0" speed="13.89" length="14.59" shape="-30.33,8.45 -44.92,8.26"/>
    </edge>
    <edge id=":clusterJ10_J7_J8_J9_2" function="internal">
        <lane id=":clusterJ10_J7_J8_J9_2_0" index="0" speed="8.03" length="4.09" shape="-30.33,8.45 -34.20,7.84 -34.35,7.75"/>
    </edge>
    <edge id=":clusterJ10_J7_J8_J9_3" function="internal">
        <lane id=":clusterJ10_J7_J8_J9_3_0" index="0" speed="3.68" length="1.47" shape="-30.33,8.45 -31.55,7.62"/>
    </edge>
    <edge id=":clusterJ10_J7_J8_J9_16" function="internal">
        <lane id=":clusterJ10_J7_J8_J9_16_0" index="0" speed="8.03" length="10.18" shape="-34.35,7.75 -36.95,6.15 -38.58,3.37 -39.09,-0.49"/>
    </edge>
    <edge id=":clusterJ10_J7_J8_J9_17" function="internal">
        <lane id=":clusterJ10_J7_J8_J9_17_0" index="0" speed="3.68" length="3.30" shape="-31.55,7.62 -31.96,6.80 -31.54,5.99 -30.31,5.18"/>
    </edge>
    <edge id=":clusterJ10_J7_J8_J9_4" function="internal">
        <lane id=":clusterJ10_J7_J8_J9_4_0" index="0" speed="6.50" length="9.06" shape="-35.89,-0.46 -35.57,1.99 -34.53,3.75 -32.78,4.81 -30.31,5.18"/>
    </edge>
    <edge id=":clusterJ10_J7_J8_J9_5" function="internal">
        <lane id=":clusterJ10_J7_J8_J9_5_0" index="0" speed="13.89" length="14.48" shape="-35.89,-0.46 -36.04,14.02"/>
    </edge>
    <edge id=":clusterJ10_J7_J8_J9_6" function="internal">
        <lane id=":clusterJ10_J7_J8_J9_6_0" index="0" speed="8.04" length="4.11" shape="-35.89,-0.46 -36.49,3.38 -36.61,3.57"/>
    </edge>
    <edge id=":clusterJ10_J7_J8_J9_7" function="internal">
        <lane id=":clusterJ10_J7_J8_J9_7_0" index="0" speed="3.65" length="1.44" shape="-35.89,-0.46 -36.71,0.73"/>
    </edge>
    <edge id=":clusterJ10_J7_J8_J9_18" function="internal">
        <lane id=":clusterJ10_J7_J8_J9_18_0" index="0" speed="8.04" length="10.19" shape="-36.61,3.57 -38.20,6.12 -41.01,7.74 -44.92,8.26"/>
    </edge>
    <edge id=":clusterJ10_J7_J8_J9_19" function="internal">
        <lane id=":clusterJ10_J7_J8_J9_19_0" index="0" speed="3.65" length="3.23" shape="-36.71,0.73 -37.51,1.12 -38.31,0.71 -39.09,-0.49"/>
    </edge>
    <edge id=":clusterJ10_J7_J8_J9_8" function="internal">
        <lane id=":clusterJ10_J7_J8_J9_8_0" index="0" speed="6.62" length="9.28" shape="-44.90,5.25 -42.38,4.88 -40.57,3.80 -39.48,2.01 -39.09,-0.49"/>
    </edge>
    <edge id=":clusterJ10_J7_J8_J9_9" function="internal">
        <lane id=":clusterJ10_J7_J8_J9_9_0" index="0" speed="13.89" length="14.59" shape="-44.90,5.25 -30.31,5.18"/>
    </edge>
    <edge id=":clusterJ10_J7_J8_J9_10" function="internal">
        <lane id=":clusterJ10_J7_J8_J9_10_0" index="0" speed="7.95" length="3.99" shape="-44.90,5.25 -40.94,5.78"/>
    </edge>
    <edge id=":clusterJ10_J7_J8_J9_11" function="internal">
        <lane id=":clusterJ10_J7_J8_J9_11_0" index="0" speed="3.58" length="1.17" shape="-44.90,5.25 -43.93,5.91"/>
    </edge>
    <edge id=":clusterJ10_J7_J8_J9_20" function="internal">
        <lane id=":clusterJ10_J7_J8_J9_20_0" index="0" speed="7.95" length="10.32" shape="-40.94,5.78 -38.14,7.42 -36.51,10.16 -36.04,14.02"/>
    </edge>
    <edge id=":clusterJ10_J7_J8_J9_21" function="internal">
        <lane id=":clusterJ10_J7_J8_J9_21_0" index="0" speed="3.58" length="3.23" shape="-43.93,5.91 -43.77,6.01 -43.40,6.77 -43.78,7.52 -44.92,8.26"/>
    </edge>
    <edge id=":clusterJ10_J7_J8_J9_12" function="internal">
        <lane id=":clusterJ10_J7_J8_J9_12_0" index="0" speed="6.51" length="9.05" shape="-39.38,13.93 -39.70,11.47 -40.73,9.70 -42.47,8.64 -44.92,8.26"/>
    </edge>
    <edge id=":clusterJ10_J7_J8_J9_13" function="internal">
        <lane id=":clusterJ10_J7_J8_J9_13_0" index="0" speed="13.89" length="14.43" shape="-39.38,13.93 -39.09,-0.49"/>
    </edge>
    <edge id=":clusterJ10_J7_J8_J9_14" function="internal">
        <lane id=":clusterJ10_J7_J8_J9_14_0" index="0" speed="8.06" length="4.31" shape="-39.38,13.93 -38.77,10.09 -38.55,9.73"/>
    </edge>
    <edge id=":clusterJ10_J7_J8_J9_15" function="internal">
        <lane id=":clusterJ10_J7_J8_J9_15_0" index="0" speed="3.71" length="1.51" shape="-39.38,13.93 -38.51,12.70"/>
    </edge>
    <edge id=":clusterJ10_J7_J8_J9_22" function="internal">
        <lane id=":clusterJ10_J7_J8_J9_22_0" index="0" speed="8.06" length="10.04" shape="-38.55,9.73 -37.06,7.34 -34.24,5.71 -30.31,5.18"/>
    </edge>
    <edge id=":clusterJ10_J7_J8_J9_23" function="internal">
        <lane id=":clusterJ10_J7_J8_J9_23_0" index="0" speed="3.71" length="3.37" shape="-38.51,12.70 -37.66,12.31 -36.84,12.74 -36.04,14.02"/>
    </edge>
    <edge id=":clusterJ13_J20_J3_0" function="internal">
        <lane id=":clusterJ13_J20_J3_0_0" index="0" speed="7.11" length="7.37" shape="12.15,13.32 10.97,11.24 9.71,9.76 8.38,8.88 6.97,8.61"/>
    </edge>
    <edge id=":clusterJ13_J20_J3_1" function="internal">
        <lane id=":clusterJ13_J20_J3_1_0" index="0" speed="11.52" length="13.31" shape="12.15,13.32 10.97,10.11 10.50,6.89 10.74,3.65 11.70,0.40"/>
    </edge>
    <edge id=":clusterJ13_J20_J3_2" function="internal">
        <lane id=":clusterJ13_J20_J3_2_0" index="0" speed="7.16" length="7.93" shape="6.12,5.36 7.81,5.05 9.30,4.13 10.60,2.58 11.70,0.40"/>
    </edge>
    <edge id=":clusterJ14_J15_J21_0" function="internal">
        <lane id=":clusterJ14_J15_J21_0_0" index="0" speed="7.06" length="8.25" shape="36.27,-20.89 36.50,-18.57 37.26,-16.72 38.54,-15.34 40.35,-14.42"/>
    </edge>
    <edge id=":clusterJ14_J15_J21_1" function="internal">
        <lane id=":clusterJ14_J15_J21_1_0" index="0" speed="6.57" length="7.61" shape="28.68,-15.51 30.58,-16.21 31.94,-17.34 32.77,-18.92 33.06,-20.92"/>
    </edge>
    <edge id=":clusterJ14_J15_J21_2" function="internal">
        <lane id=":clusterJ14_J15_J21_2_0" index="0" speed="13.89" length="11.93" shape="28.68,-15.51 31.89,-16.02 34.56,-15.96 37.21,-15.40 40.35,-14.42"/>
    </edge>
    <edge id=":clusterJ16_J17_J25_0" function="internal">
        <lane id=":clusterJ16_J17_J25_0_0" index="0" speed="7.51" length="9.03" shape="60.31,8.87 57.86,9.18 55.87,10.06 54.34,11.50 53.28,13.52"/>
    </edge>
    <edge id=":clusterJ16_J17_J25_1" function="internal">
        <lane id=":clusterJ16_J17_J25_1_0" index="0" speed="6.86" length="8.55" shape="54.54,0.38 55.32,2.68 56.54,4.33 58.21,5.32 60.31,5.65"/>
    </edge>
    <edge id=":clusterJ16_J17_J25_2" function="internal">
        <lane id=":clusterJ16_J17_J25_2_0" index="0" speed="13.89" length="13.40" shape="54.54,0.38 55.02,3.83 54.94,7.02 54.34,10.17 53.28,13.52"/>
    </edge>
    <edge id=":clusterJ18_J19_J23_0" function="internal">
        <lane id=":clusterJ18_J19_J23_0_0" index="0" speed="6.84" length="8.58" shape="31.81,32.92 31.48,30.75 30.50,29.06 28.87,27.84 26.59,27.09"/>
    </edge>
    <edge id=":clusterJ18_J19_J23_1" function="internal">
        <lane id=":clusterJ18_J19_J23_1_0" index="0" speed="7.58" length="8.20" shape="40.02,26.93 37.82,28.24 36.25,29.67 35.32,31.23 35.01,32.91"/>
    </edge>
    <edge id=":clusterJ18_J19_J23_2" function="internal">
        <lane id=":clusterJ18_J19_J23_2_0" index="0" speed="13.89" length="13.70" shape="40.02,26.93 36.72,28.03 33.46,28.21 30.13,27.79 26.59,27.09"/>
    </edge>
    <edge id=":clusterJ22_J50_0" function="internal">
        <lane id=":clusterJ22_J50_0_0" index="0" speed="13.89" length="0.33" shape="36.53,-46.03 36.54,-45.70"/>
    </edge>
    <edge id=":clusterJ22_J50_1" function="internal">
        <lane id=":clusterJ22_J50_1_0" index="0" speed="13.89" length="0.34" shape="33.30,-45.74 33.32,-45.84 33.35,-45.90 33.39,-45.96 33.40,-46.06"/>
    </edge>
    <edge id=":clusterJ26_J43_0" function="internal">
        <lane id=":clusterJ26_J43_0_0" index="0" speed="13.89" length="8.51" shape="106.63,8.15 114.73,8.10"/>
        <lane id=":clusterJ26_J43_0_1" index="1" speed="13.89" length="8.51" shape="106.63,8.15 109.13,8.65 110.70,9.75 112.27,10.84 114.77,11.30"/>
    </edge>
    <edge id=":clusterJ26_J43_2" function="internal">
        <lane id=":clusterJ26_J43_2_0" index="0" speed="13.89" length="9.25" shape="106.63,5.06 114.68,4.90"/>
        <lane id=":clusterJ26_J43_2_1" index="1" speed="13.89" length="9.25" shape="106.63,5.06 109.11,5.50 110.68,6.57 112.25,7.64 114.73,8.10"/>
        <lane id=":clusterJ26_J43_2_2" index="2" speed="13.89" length="9.25" shape="106.63,5.06 109.29,6.00 110.65,8.17 112.04,10.34 114.77,11.30"/>
    </edge>
    <edge id=":clusterJ28_J29_0" function="internal">
        <lane id=":clusterJ28_J29_0_0" index="0" speed="8.26" length="8.95" shape="-11.72,12.76 -13.13,10.93 -14.84,9.61 -16.85,8.83 -19.16,8.58"/>
    </edge>
    <edge id=":clusterJ28_J29_1" function="internal">
        <lane id=":clusterJ28_J29_1_0" index="0" speed="8.27" length="8.20" shape="6.77,8.61 4.82,8.89 3.05,9.67 1.46,10.94 0.04,12.69"/>
    </edge>
    <edge id=":clusterJ28_J29_2" function="internal">
        <lane id=":clusterJ28_J29_2_0" index="0" speed="13.89" length="25.93" shape="6.77,8.61 -19.16,8.58"/>
    </edge>
    <edge id=":clusterJ30_J40_0" function="internal">
        <lane id=":clusterJ30_J40_0_0" index="0" speed="6.48" length="9.03" shape="76.74,-1.15 76.42,-3.61 75.39,-5.37 73.65,-6.42 71.19,-6.78"/>
    </edge>
    <edge id=":clusterJ30_J40_1" function="internal">
        <lane id=":clusterJ30_J40_1_0" index="0" speed="13.89" length="13.10" shape="76.74,-1.15 77.01,-14.25"/>
    </edge>
    <edge id=":clusterJ31_J36_0" function="internal">
        <lane id=":clusterJ31_J36_0_0" index="0" speed="6.01" length="8.74" shape="58.15,-6.79 56.00,-6.40 54.64,-5.23 54.09,-3.28 54.35,-0.56"/>
    </edge>
    <edge id=":clusterJ31_J36_1" function="internal">
        <lane id=":clusterJ31_J36_1_0" index="0" speed="13.89" length="12.08" shape="47.69,-10.41 49.95,-7.95 51.84,-5.89 53.33,-3.62 54.35,-0.56"/>
    </edge>
    <edge id=":clusterJ33_J35_0" function="internal">
        <lane id=":clusterJ33_J35_0_0" index="0" speed="13.89" length="11.18" shape="82.47,8.65 71.29,8.79"/>
    </edge>
    <edge id=":clusterJ33_J35_1" function="internal">
        <lane id=":clusterJ33_J35_1_0" index="0" speed="6.42" length="9.04" shape="76.77,14.42 76.50,11.94 75.49,10.18 73.76,9.13 71.29,8.79"/>
    </edge>
    <edge id=":clusterJ37_J39_0" function="internal">
        <lane id=":clusterJ37_J39_0_0" index="0" speed="6.51" length="8.94" shape="71.12,5.64 73.54,5.30 75.28,4.26 76.34,2.54 76.72,0.12"/>
    </edge>
    <edge id=":clusterJ37_J39_1" function="internal">
        <lane id=":clusterJ37_J39_1_0" index="0" speed="13.89" length="14.01" shape="71.12,5.64 85.14,5.55"/>
    </edge>
    <edge id=":clusterJ38_J58_0" function="internal">
        <lane id=":clusterJ38_J58_0_0" index="0" speed="13.89" length="11.19" shape="84.94,-79.12 73.75,-79.17"/>
    </edge>
    <edge id=":clusterJ38_J58_1" function="internal">
        <lane id=":clusterJ38_J58_1_0" index="0" speed="6.46" length="9.03" shape="79.18,-73.46 78.92,-75.93 77.92,-77.70 76.20,-78.78 73.75,-79.17"/>
    </edge>
    <edge id=":clusterJ44_J48_J49_J53_0" function="internal">
        <lane id=":clusterJ44_J48_J49_J53_0_0" index="0" speed="6.54" length="9.31" shape="197.50,-1.83 197.82,0.63 198.90,2.39 200.75,3.45 203.36,3.79"/>
    </edge>
    <edge id=":clusterJ44_J48_J49_J53_1" function="internal">
        <lane id=":clusterJ44_J48_J49_J53_1_0" index="0" speed="13.89" length="17.64" shape="197.50,-1.83 197.67,15.80"/>
    </edge>
    <edge id=":clusterJ44_J48_J49_J53_2" function="internal">
        <lane id=":clusterJ44_J48_J49_J53_2_0" index="0" speed="6.63" length="9.15" shape="188.72,3.87 191.16,3.48 192.91,2.39 193.99,0.59 194.39,-1.90"/>
    </edge>
    <edge id=":clusterJ44_J48_J49_J53_3" function="internal">
        <lane id=":clusterJ44_J48_J49_J53_3_0" index="0" speed="13.89" length="14.60" shape="188.72,3.87 203.36,3.79"/>
        <lane id=":clusterJ44_J48_J49_J53_3_1" index="1" speed="13.89" length="14.60" shape="188.77,7.07 203.37,6.99"/>
        <lane id=":clusterJ44_J48_J49_J53_3_2" index="2" speed="13.89" length="14.60" shape="188.81,10.27 203.37,10.19"/>
    </edge>
    <edge id=":clusterJ44_J48_J49_J53_6" function="internal">
        <lane id=":clusterJ44_J48_J49_J53_6_0" index="0" speed="7.25" length="11.83" shape="188.81,10.27 192.74,10.56 195.53,11.59 197.17,13.33 197.67,15.80"/>
    </edge>
    <edge id=":clusterJ55_J57_0" function="internal">
        <lane id=":clusterJ55_J57_0_0" index="0" speed="6.44" length="9.03" shape="93.77,14.06 93.44,11.60 92.40,9.85 90.64,8.83 88.18,8.53"/>
    </edge>
    <edge id=":clusterJ55_J57_1" function="internal">
        <lane id=":clusterJ55_J57_1_0" index="0" speed="6.61" length="9.15" shape="93.77,14.06 94.14,11.56 95.20,9.76 96.95,8.65 99.38,8.25"/>
    </edge>

    <edge id="-E0" from="J1" to="clusterJ10_J7_J8_J9" priority="-1" shape="-37.04,-43.46 -37.57,6.74">
        <lane id="-E0_0" index="0" speed="13.89" length="42.98" shape="-35.44,-43.44 -35.89,-0.46"/>
    </edge>
    <edge id="-E0.54" from="clusterJ10_J7_J8_J9" to="J0" priority="-1" shape="-37.46,6.85 -38.25,38.87">
        <lane id="-E0.54_0" index="0" speed="13.89" length="24.90" shape="-36.04,14.02 -36.65,38.91"/>
    </edge>
    <edge id="-E1" from="clusterJ13_J20_J3" to="clusterJ28_J29" priority="-1" shape="8.95,6.97 -5.36,7.23">
        <lane id="-E1_0" index="0" speed="13.89" length="0.20" shape="6.97,8.61 6.77,8.61"/>
    </edge>
    <edge id="-E1.104" from="clusterJ10_J7_J8_J9" to="J2" priority="-1" shape="-37.61,6.72 -80.01,6.40">
        <lane id="-E1.104_0" index="0" speed="13.89" length="35.10" shape="-44.92,8.26 -80.02,8.00"/>
    </edge>
    <edge id="-E1.17" from="clusterJ28_J29" to="clusterJ10_J7_J8_J9" priority="-1" shape="-5.32,6.93 -20.52,6.98 -37.43,6.75">
        <lane id="-E1.17_0" index="0" speed="13.89" length="11.17" shape="-19.16,8.58 -20.53,8.58 -30.33,8.45"/>
    </edge>
    <edge id="-E10" from="clusterJ28_J29" to="J27" priority="-1" shape="1.15,8.17 -0.71,10.93 -3.70,15.43 -5.90,22.11 -5.82,57.84">
        <lane id="-E10_0" index="0" speed="13.89" length="46.16" shape="0.04,12.69 -2.25,16.14 -4.30,22.36 -4.22,57.84"/>
    </edge>
    <edge id="-E16" from="clusterJ22_J50" to="clusterJ44_J48_J49_J53" priority="-1" shape="35.00,-45.82 35.28,-81.11 197.68,-79.85 195.67,8.32">
        <lane id="-E16_0" index="0" speed="13.89" length="281.92" shape="33.40,-46.06 33.69,-82.72 199.32,-81.44 197.50,-1.83"/>
    </edge>
    <edge id="-E7" from="clusterJ22_J50" to="clusterJ14_J15_J21" priority="-1" shape="34.94,-45.93 34.60,-14.40">
        <lane id="-E7_0" index="0" speed="13.89" length="24.81" shape="36.54,-45.70 36.27,-20.89"/>
    </edge>
    <edge id="-E8" from="J24" to="clusterJ18_J19_J23" priority="-1" shape="33.48,56.87 33.41,32.97 33.38,26.53">
        <lane id="-E8_0" index="0" speed="13.89" length="23.95" shape="31.88,56.87 31.81,32.92"/>
    </edge>
    <edge id="-E9" from="clusterJ55_J57" to="clusterJ26_J43" priority="-1" shape="94.73,9.94 104.47,9.75 110.74,9.75">
        <lane id="-E9_0" index="0" speed="13.89" length="7.25" shape="99.38,8.25 104.45,8.15 106.63,8.15"/>
    </edge>
    <edge id="-E9.12" from="clusterJ55_J57" to="clusterJ33_J35" priority="-1" shape="95.35,6.78 78.61,7.13">
        <lane id="-E9.12_0" index="0" speed="13.89" length="5.71" shape="88.18,8.53 82.47,8.65"/>
    </edge>
    <edge id="-E9.22" from="clusterJ33_J35" to="clusterJ16_J17_J25" priority="-1" shape="78.59,7.14 56.68,7.30">
        <lane id="-E9.22_0" index="0" speed="13.89" length="10.98" shape="71.29,8.79 60.31,8.87"/>
    </edge>
    <edge id="E0" from="J0" to="clusterJ10_J7_J8_J9" priority="-1" shape="-38.25,38.87 -37.82,18.08 -37.70,6.74">
        <lane id="E0_0" index="0" speed="13.89" length="24.91" shape="-39.85,38.84 -39.42,18.05 -39.38,13.93"/>
    </edge>
    <edge id="E0.36" from="clusterJ10_J7_J8_J9" to="J1" priority="-1" shape="-37.57,6.75 -37.04,-43.46">
        <lane id="E0.36_0" index="0" speed="13.89" length="42.98" shape="-39.09,-0.49 -38.64,-43.48"/>
    </edge>
    <edge id="E1" from="J2" to="clusterJ10_J7_J8_J9" priority="-1" shape="-80.01,6.40 -47.06,6.86 -37.56,6.81">
        <lane id="E1_0" index="0" speed="13.89" length="35.09" shape="-79.99,4.80 -47.05,5.26 -44.90,5.25"/>
    </edge>
    <edge id="E1.38" from="clusterJ10_J7_J8_J9" to="clusterJ13_J20_J3" priority="-1" shape="-37.58,6.74 8.95,6.97">
        <lane id="E1.38_0" index="0" speed="13.89" length="36.43" shape="-30.31,5.18 6.12,5.36"/>
    </edge>
    <edge id="E10" from="J27" to="clusterJ28_J29" priority="-1" shape="-5.82,57.84 -5.84,22.21 -7.51,17.12 -9.84,12.78 -12.50,8.36">
        <lane id="E10_0" index="0" speed="13.89" length="46.02" shape="-7.42,57.84 -7.44,22.47 -8.99,17.75 -11.23,13.57 -11.72,12.76"/>
    </edge>
    <edge id="E11" from="clusterJ30_J40" to="clusterJ31_J36" priority="-1" shape="78.39,-8.37 52.02,-8.39">
        <lane id="E11_0" index="0" speed="13.89" length="13.04" shape="71.19,-6.78 58.15,-6.79"/>
    </edge>
    <edge id="E12" from="J32" to="clusterJ33_J35" priority="-1" shape="77.06,53.61 78.61,7.17">
        <lane id="E12_0" index="0" speed="13.89" length="39.16" shape="75.46,53.56 76.77,14.42"/>
    </edge>
    <edge id="E13" from="clusterJ37_J39" to="clusterJ30_J40" priority="-1" shape="78.22,7.30 78.44,-8.44">
        <lane id="E13_0" index="0" speed="13.89" length="1.27" shape="76.72,0.12 76.74,-1.15"/>
    </edge>
    <edge id="E13.22" from="clusterJ30_J40" to="clusterJ38_J58" priority="-1" shape="78.40,-8.43 81.04,-80.60">
        <lane id="E13.22_0" index="0" speed="13.89" length="59.25" shape="77.01,-14.25 79.18,-73.46"/>
    </edge>
    <edge id="E14" from="clusterJ26_J43" to="clusterJ44_J48_J49_J53" priority="-1" shape="110.77,12.96 195.69,11.77">
        <lane id="E14_0" index="0" speed="13.89" length="74.05" shape="114.68,4.90 188.72,3.87"/>
        <lane id="E14_1" index="1" speed="13.89" length="74.05" shape="114.73,8.10 188.77,7.07"/>
        <lane id="E14_2" index="2" speed="13.89" length="74.05" shape="114.77,11.30 188.81,10.27"/>
    </edge>
    <edge id="E15" from="clusterJ44_J48_J49_J53" to="J47" priority="-1">
        <lane id="E15_0" index="0" speed="13.89" length="68.90" shape="197.67,15.80 195.85,84.68"/>
    </edge>
    <edge id="E16" from="clusterJ44_J48_J49_J53" to="clusterJ38_J58" priority="-1" shape="195.77,8.32 197.68,-79.85 81.13,-80.75">
        <lane id="E16_0" index="0" speed="13.89" length="187.49" shape="194.39,-1.90 196.05,-78.26 84.94,-79.12"/>
    </edge>
    <edge id="E16.190" from="clusterJ38_J58" to="clusterJ22_J50" priority="-1" shape="81.05,-80.67 34.98,-81.31 34.93,-45.92">
        <lane id="E16.190_0" index="0" speed="13.89" length="70.83" shape="73.75,-79.17 36.58,-79.69 36.53,-46.03"/>
    </edge>
    <edge id="E17" from="clusterJ44_J48_J49_J53" to="J54" priority="-1" shape="195.67,11.81 299.35,11.58">
        <lane id="E17_0" index="0" speed="13.89" length="95.97" shape="203.36,3.79 299.33,3.58"/>
        <lane id="E17_1" index="1" speed="13.89" length="95.97" shape="203.37,6.99 299.34,6.78"/>
        <lane id="E17_2" index="2" speed="13.89" length="95.97" shape="203.37,10.19 299.35,9.98"/>
    </edge>
    <edge id="E18" from="J56" to="clusterJ55_J57" priority="-1" shape="95.04,49.50 95.44,6.81">
        <lane id="E18_0" index="0" speed="13.89" length="35.43" shape="93.44,49.49 93.77,14.06"/>
    </edge>
    <edge id="E3" from="clusterJ13_J20_J3" to="clusterJ14_J15_J21" priority="-1" shape="12.74,5.34 13.27,0.77 15.04,-3.59 17.43,-7.49 21.38,-10.65 25.14,-12.89 28.81,-13.90 31.92,-14.59">
        <lane id="E3_0" index="0" speed="13.89" length="24.55" shape="11.70,0.40 13.61,-4.31 16.21,-8.56 20.47,-11.97 24.51,-14.38 28.42,-15.45 28.68,-15.51"/>
    </edge>
    <edge id="E4" from="clusterJ14_J15_J21" to="clusterJ31_J36" priority="-1" shape="36.97,-13.84 39.78,-12.92 43.27,-11.76 46.45,-9.40 51.36,-3.59">
        <lane id="E4_0" index="0" speed="13.89" length="8.48" shape="40.35,-14.42 44.02,-13.20 47.55,-10.57 47.69,-10.41"/>
    </edge>
    <edge id="E4.11" from="clusterJ31_J36" to="clusterJ16_J17_J25" priority="-1" shape="51.36,-3.59 52.71,-0.57 53.19,1.71 53.39,5.39">
        <lane id="E4.11_0" index="0" speed="13.89" length="0.95" shape="54.35,-0.56 54.54,0.38"/>
    </edge>
    <edge id="E5" from="clusterJ16_J17_J25" to="clusterJ18_J19_J23" priority="-1" shape="53.16,9.15 50.97,15.20 49.22,18.51 46.60,21.15 43.26,23.54 39.51,25.40 35.51,26.07">
        <lane id="E5_0" index="0" speed="13.89" length="19.57" shape="53.28,13.52 52.44,15.85 50.52,19.47 47.64,22.37 44.09,24.92 40.02,26.93"/>
    </edge>
    <edge id="E6" from="clusterJ18_J19_J23" to="clusterJ13_J20_J3" priority="-1" shape="30.87,26.02 28.77,25.89 26.58,25.46 23.42,23.98 20.24,21.95 17.18,19.20 15.04,15.63 13.51,12.45 12.67,8.28">
        <lane id="E6_0" index="0" speed="13.89" length="20.69" shape="26.59,27.09 26.08,26.99 22.65,25.38 19.27,23.23 15.93,20.23 13.63,16.39 12.15,13.32"/>
    </edge>
    <edge id="E7" from="clusterJ14_J15_J21" to="clusterJ22_J50" priority="-1" shape="34.60,-14.40 34.90,-45.90">
        <lane id="E7_0" index="0" speed="13.89" length="24.82" shape="33.06,-20.92 33.30,-45.74"/>
    </edge>
    <edge id="E8" from="clusterJ18_J19_J23" to="J24" priority="-1" shape="33.39,27.52 33.48,56.87">
        <lane id="E8_0" index="0" speed="13.89" length="23.95" shape="35.01,32.91 35.08,56.87"/>
    </edge>
    <edge id="E9" from="clusterJ16_J17_J25" to="clusterJ37_J39" priority="-1" shape="56.35,7.25 78.09,7.24">
        <lane id="E9_0" index="0" speed="13.89" length="10.81" shape="60.31,5.65 71.12,5.64"/>
    </edge>
    <edge id="E9.19" from="clusterJ37_J39" to="clusterJ26_J43" priority="-1" shape="78.09,7.31 110.63,6.57">
        <lane id="E9.19_0" index="0" speed="13.89" length="21.50" shape="85.14,5.55 106.63,5.06"/>
    </edge>

    <tlLogic id="clusterJ10_J7_J8_J9" type="static" programID="0" offset="0">
        <phase duration="3"  state="rrrrGGggrrrrGGgg"/>
        <phase duration="3"  state="rrrryyyyrrrryyyy"/>
        <phase duration="3"  state="GGggrrrrGGggrrrr"/>
        <phase duration="3"  state="yyyyrrrryyyyrrrr"/>
    </tlLogic>
    <tlLogic id="clusterJ13_J20_J3" type="static" programID="0" offset="0">
        <phase duration="3"  state="GOr"/>
        <phase duration="3"  state="Gyr"/>
        <phase duration="3"  state="GrG"/>
        <phase duration="3"  state="Gry"/>
    </tlLogic>
    <tlLogic id="clusterJ14_J15_J21" type="static" programID="0" offset="0">
        <phase duration="42" state="GGO"/>
        <phase duration="3"  state="yGr"/>
        <phase duration="42" state="rGG"/>
        <phase duration="3"  state="rGy"/>
    </tlLogic>
    <tlLogic id="clusterJ16_J17_J25" type="static" programID="0" offset="0">
        <phase duration="3"  state="GGO"/>
        <phase duration="3"  state="yGr"/>
        <phase duration="3"  state="rGG"/>
        <phase duration="3"  state="rGy"/>
    </tlLogic>
    <tlLogic id="clusterJ18_J19_J23" type="static" programID="0" offset="0">
        <phase duration="3"  state="GOr"/>
        <phase duration="3"  state="Gyr"/>
        <phase duration="3"  state="GrG"/>
        <phase duration="3"  state="Gry"/>
    </tlLogic>
    <tlLogic id="clusterJ30_J40" type="static" programID="0" offset="0">
        <phase duration="6"  state="GG"/>
        <phase duration="3"  state="yy"/>
        <phase duration="5"  state="rr"/>
    </tlLogic>
    <tlLogic id="clusterJ55_J57" type="static" programID="0" offset="0">
        <phase duration="6"  state="GG"/>
        <phase duration="3"  state="yy"/>
        <phase duration="5"  state="rr"/>
    </tlLogic>

    <junction id="J0" type="priority" x="-38.25" y="38.87" incLanes="-E0.54_0" intLanes=":J0_0_0" shape="-38.25,38.87 -41.45,38.80 -35.05,38.95">
        <request index="0" response="0" foes="0" cont="0"/>
    </junction>
    <junction id="J1" type="priority" x="-37.04" y="-43.46" incLanes="E0.36_0" intLanes=":J1_0_0" shape="-37.04,-43.46 -40.24,-43.49 -37.04,-43.46">
        <request index="0" response="0" foes="0" cont="0"/>
    </junction>
    <junction id="J2" type="priority" x="-80.01" y="6.40" incLanes="-E1.104_0" intLanes=":J2_0_0" shape="-80.01,6.40 -79.97,3.20 -80.03,9.60">
        <request index="0" response="0" foes="0" cont="0"/>
    </junction>
    <junction id="J24" type="priority" x="33.48" y="56.87" incLanes="E8_0" intLanes=":J24_0_0" shape="33.48,56.87 36.68,56.86 33.48,56.87">
        <request index="0" response="0" foes="0" cont="0"/>
    </junction>
    <junction id="J27" type="priority" x="-5.82" y="57.84" incLanes="-E10_0" intLanes=":J27_0_0" shape="-5.82,57.84 -9.02,57.84 -2.62,57.83">
        <request index="0" response="0" foes="0" cont="0"/>
    </junction>
    <junction id="J32" type="dead_end" x="77.06" y="53.61" incLanes="" intLanes="" shape="77.06,53.61 73.86,53.50"/>
    <junction id="J47" type="dead_end" x="194.25" y="84.64" incLanes="E15_0" intLanes="" shape="197.45,84.72 194.25,84.64"/>
    <junction id="J54" type="dead_end" x="299.35" y="11.58" incLanes="E17_0 E17_1 E17_2" intLanes="" shape="299.33,1.98 299.35,11.58"/>
    <junction id="J56" type="dead_end" x="95.04" y="49.50" incLanes="" intLanes="" shape="95.04,49.50 91.84,49.47"/>
    <junction id="clusterJ10_J7_J8_J9" type="traffic_light" x="-37.71" y="6.93" incLanes="-E1.17_0 -E0_0 E1_0 E0_0" intLanes=":clusterJ10_J7_J8_J9_0_0 :clusterJ10_J7_J8_J9_1_0 :clusterJ10_J7_J8_J9_16_0 :clusterJ10_J7_J8_J9_17_0 :clusterJ10_J7_J8_J9_4_0 :clusterJ10_J7_J8_J9_5_0 :clusterJ10_J7_J8_J9_18_0 :clusterJ10_J7_J8_J9_19_0 :clusterJ10_J7_J8_J9_8_0 :clusterJ10_J7_J8_J9_9_0 :clusterJ10_J7_J8_J9_20_0 :clusterJ10_J7_J8_J9_21_0 :clusterJ10_J7_J8_J9_12_0 :clusterJ10_J7_J8_J9_13_0 :clusterJ10_J7_J8_J9_22_0 :clusterJ10_J7_J8_J9_23_0" shape="-30.34,10.05 -30.30,3.58 -32.54,3.12 -33.32,2.56 -33.87,1.78 -34.19,0.78 -34.29,-0.44 -40.69,-0.51 -41.18,1.79 -41.76,2.60 -42.58,3.18 -43.62,3.53 -44.89,3.65 -44.93,9.86 -42.72,10.33 -41.94,10.89 -41.40,11.67 -41.07,12.67 -40.98,13.89 -34.44,14.06 -33.94,11.80 -33.36,11.02 -32.57,10.47 -31.56,10.14">
        <request index="0"  response="0000000000100000" foes="1000010000100000" cont="0"/>
        <request index="1"  response="0111000001100000" foes="0111110001100000" cont="0"/>
        <request index="2"  response="0110011101100000" foes="0110011111100000" cont="1"/>
        <request index="3"  response="0100001000010000" foes="0100001000010000" cont="1"/>
        <request index="4"  response="0000000000000000" foes="0100001000001000" cont="0"/>
        <request index="5"  response="0000010000000100" foes="1100011000000111" cont="0"/>
        <request index="6"  response="0111010000000100" foes="0111111000000110" cont="1"/>
        <request index="7"  response="0010000100000100" foes="0010000100000100" cont="1"/>
        <request index="8"  response="0010000000000000" foes="0010000010000100" cont="0"/>
        <request index="9"  response="0110000001110000" foes="0110000001111100" cont="0"/>