<?xml version="1.0" encoding="UTF-8"?>

<!-- generated on 2025-12-13 00:04:59 by Eclipse SUMO netedit Version 1.24.0
<neteditConfiguration xmlns:xsi="http://www.w3.org/2001/XMLSchema-instance" xsi:noNamespaceSchemaLocation="http://sumo.dlr.de/xsd/neteditConfiguration.xsd">

    <input>
        <sumocfg-file value="C:\traffic_light-main\simulationrealtime\resource\Netedit_testrun.sumocfg"/>
        <route-files value="C:\traffic_light-main\simulationrealtime\resource\Netedit_testrun.rou.xml"/>
        <sumo-net-file value="C:\traffic_light-main\simulationrealtime\resource\Netedit_requirement.net.xml"/>
    </input>

    <output>
        <output-file value="C:\traffic_light-main\simulationrealtime\resource\Netedit_requirement.net.xml"/>
    </output>

    <processing>
        <geometry.min-radius.fix.railways value="false"/>
        <geometry.avoid-overlap value="false"/>
        <geometry.max-grade.fix value="false"/>
        <offset.disable-normalization value="true"/>
        <lefthand value="0"/>
    </processing>

    <junctions>
        <no-turnarounds value="true"/>
        <junctions.corner-detail value="5"/>
        <junctions.limit-turn-speed value="5.50"/>
        <rectangular-lane-cut value="0"/>
    </junctions>

    <pedestrian>
        <walkingareas value="0"/>
    </pedestrian>

    <netedit>
        <ignore.routeelements value="false"/>
    </netedit>

</neteditConfiguration>
-->

<net version="1.20" junctionCornerDetail="5" limitTurnSpeed="5.50" avoidOverlap="0" xmlns:xsi="http://www.w3.org/2001/XMLSchema-instance" xsi:noNamespaceSchemaLocation="http://sumo.dlr.de/xsd/net_file.xsd">

    <location netOffset="0.00,0.00" convBoundary="-81.73,-55.10,115.18,135.76" origBoundary="-10000000000.00,-10000000000.00,10000000000.00,10000000000.00" projParameter="!"/>

    <edge id=":J4_0" function="internal">
        <lane id=":J4_0_0" index="0" speed="6.08" length="7.75" shape="-78.52,137.32 -80.63,137.03 -82.13,136.13 -83.03,134.63 -83.33,132.52"/>
    </edge>
    <edge id=":J4_1" function="internal">
        <lane id=":J4_1_0" index="0" speed="3.90" length="2.58" shape="-80.13,132.53 -80.03,133.23 -79.73,133.73 -79.23,134.03 -78.53,134.13"/>
    </edge>
    <edge id=":J5_0" function="internal">
        <lane id=":J5_0_0" index="0" speed="6.09" length="7.81" shape="-83.31,-51.78 -83.02,-53.90 -82.12,-55.42 -80.61,-56.33 -78.49,-56.63"/>
    </edge>
    <edge id=":J5_1" function="internal">
        <lane id=":J5_1_0" index="0" speed="3.90" length="2.60" shape="-78.49,-53.43 -79.20,-53.33 -79.70,-53.03 -80.00,-52.52 -80.09,-51.81"/>
    </edge>
    <edge id=":J59_0" function="internal">
        <lane id=":J59_0_0" index="0" speed="7.47" length="9.04" shape="-1.40,-14.87 -2.50,-17.08 -3.99,-18.65 -5.87,-19.60 -8.15,-19.91"/>
    </edge>
    <edge id=":J59_1" function="internal">
        <lane id=":J59_1_0" index="0" speed="13.21" length="13.96" shape="-1.40,-14.87 -2.52,-18.33 -3.22,-21.69 -3.26,-25.04 -2.42,-28.47"/>
    </edge>
    <edge id=":J59_2" function="internal">
        <lane id=":J59_2_0" index="0" speed="7.30" length="8.34" shape="-8.15,-23.11 -6.42,-23.45 -4.89,-24.45 -3.56,-26.13 -2.42,-28.47"/>
    </edge>
    <edge id=":J61_0" function="internal">
        <lane id=":J61_0_0" index="0" speed="7.46" length="8.28" shape="24.57,-4.30 22.54,-3.11 21.11,-1.66 20.25,0.05 19.99,2.01"/>
    </edge>
    <edge id=":J61_1" function="internal">
        <lane id=":J61_1_0" index="0" speed="11.41" length="12.52" shape="24.57,-4.30 21.27,-3.08 18.15,-2.51 15.20,-2.60 12.42,-3.34"/>
    </edge>
    <edge id=":J61_2" function="internal">
        <lane id=":J61_2_0" index="0" speed="6.99" length="7.64" shape="17.12,2.07 16.85,0.41 15.97,-1.04 14.50,-2.29 12.42,-3.34"/>
    </edge>
    <edge id=":J62_0" function="internal">
        <lane id=":J62_0_0" index="0" speed="7.52" length="8.45" shape="19.17,-48.05 19.43,-46.05 20.30,-44.32 21.77,-42.83 23.84,-41.60"/>
    </edge>
    <edge id=":J62_1" function="internal">
        <lane id=":J62_1_0" index="0" speed="7.51" length="8.09" shape="10.89,-42.28 13.08,-43.54 14.65,-44.93 15.60,-46.44 15.93,-48.09"/>
    </edge>
    <edge id=":J62_2" function="internal">
        <lane id=":J62_2_0" index="0" speed="11.12" length="13.39" shape="10.89,-42.28 13.83,-43.25 16.96,-43.46 20.30,-42.91 23.84,-41.60"/>
    </edge>
    <edge id=":J64_0" function="internal">
        <lane id=":J64_0_0" index="0" speed="7.13" length="9.00" shape="42.63,-18.91 39.73,-18.64 37.53,-17.90 36.03,-16.70 35.24,-15.03"/>
    </edge>
    <edge id=":J64_1" function="internal">
        <lane id=":J64_1_0" index="0" speed="6.53" length="8.22" shape="36.97,-26.92 37.58,-24.80 38.72,-23.28 40.39,-22.39 42.59,-22.11"/>
    </edge>
    <edge id=":J64_2" function="internal">
        <lane id=":J64_2_0" index="0" speed="13.89" length="12.12" shape="36.97,-26.92 37.16,-23.66 36.79,-20.95 36.08,-18.25 35.24,-15.03"/>
    </edge>
    <edge id=":J7_0" function="internal">
        <lane id=":J7_0_0" index="0" speed="3.91" length="2.57" shape="113.27,-51.90 113.16,-52.60 112.86,-53.10 112.36,-53.40 111.67,-53.50"/>
    </edge>
    <edge id=":J7_1" function="internal">
        <lane id=":J7_1_0" index="0" speed="6.07" length="7.71" shape="111.67,-56.70 113.75,-56.40 115.24,-55.50 116.13,-54.00 116.43,-51.90"/>
    </edge>
    <edge id=":J9_0" function="internal">
        <lane id=":J9_0_0" index="0" speed="6.08" length="7.75" shape="116.36,132.56 116.06,134.66 115.16,136.16 113.66,137.06 111.56,137.36"/>
    </edge>
    <edge id=":J9_1" function="internal">
        <lane id=":J9_1_0" index="0" speed="3.90" length="2.58" shape="111.56,134.16 112.26,134.06 112.76,133.76 113.06,133.26 113.16,132.56"/>
    </edge>
    <edge id=":clusterJ15_J73_J74_0" function="internal">
        <lane id=":clusterJ15_J73_J74_0_0" index="0" speed="6.52" length="9.05" shape="-74.49,108.59 -76.95,108.94 -78.70,109.99 -79.76,111.74 -80.11,114.19"/>
    </edge>
    <edge id=":clusterJ15_J73_J74_1" function="internal">
        <lane id=":clusterJ15_J73_J74_1_0" index="0" speed="9.32" length="19.64" shape="-74.49,102.19 -78.34,101.24 -81.10,98.39 -82.74,93.64 -83.29,86.99"/>
    </edge>
    <edge id=":clusterJ15_J73_J74_2" function="internal">
        <lane id=":clusterJ15_J73_J74_2_0" index="0" speed="6.50" length="9.03" shape="-80.09,86.99 -79.74,89.44 -78.69,91.19 -76.94,92.24 -74.49,92.59"/>
    </edge>
    <edge id=":clusterJ15_J73_J74_3" function="internal">
        <lane id=":clusterJ15_J73_J74_3_0" index="0" speed="13.89" length="27.20" shape="-80.09,86.99 -80.11,114.19"/>
    </edge>
    <edge id=":clusterJ15_J73_J74_4" function="internal">
        <lane id=":clusterJ15_J73_J74_4_0" index="0" speed="13.89" length="27.20" shape="-83.31,114.19 -83.29,86.99"/>
    </edge>
    <edge id=":clusterJ15_J73_J74_5" function="internal">
        <lane id=":clusterJ15_J73_J74_5_0" index="0" speed="9.95" length="8.54" shape="-83.31,114.19 -82.76,106.14 -82.62,105.68"/>
        <lane id=":clusterJ15_J73_J74_5_1" index="1" speed="9.33" length="7.05" shape="-83.31,114.19 -82.76,107.54 -82.63,107.18"/>
    </edge>
    <edge id=":clusterJ15_J73_J74_7" function="internal">
        <lane id=":clusterJ15_J73_J74_7_0" index="0" speed="9.95" length="13.94" shape="-82.62,105.68 -81.10,100.39 -78.34,96.94 -74.49,95.79"/>
        <lane id=":clusterJ15_J73_J74_7_1" index="0" speed="9.33" length="12.59" shape="-82.63,107.18 -81.10,102.79 -78.35,99.94 -74.49,98.99"/>
    </edge>
    <edge id=":clusterJ16_J71_J72_0" function="internal">
        <lane id=":clusterJ16_J71_J72_0_0" index="0" speed="13.89" length="27.20" shape="116.38,86.90 116.37,114.10"/>
    </edge>
    <edge id=":clusterJ16_J71_J72_1" function="internal">
        <lane id=":clusterJ16_J71_J72_1_0" index="0" speed="9.95" length="8.54" shape="116.38,86.90 115.82,94.95 115.69,95.40"/>
        <lane id=":clusterJ16_J71_J72_1_1" index="1" speed="9.32" length="7.05" shape="116.38,86.90 115.83,93.55 115.70,93.90"/>
    </edge>
    <edge id=":clusterJ16_J71_J72_7" function="internal">
        <lane id=":clusterJ16_J71_J72_7_0" index="0" speed="9.95" length="13.94" shape="115.69,95.40 114.17,100.70 111.42,104.15 107.57,105.30"/>
        <lane id=":clusterJ16_J71_J72_7_1" index="0" speed="9.32" length="12.59" shape="115.70,93.90 114.17,98.30 111.42,101.15 107.57,102.10"/>
    </edge>
    <edge id=":clusterJ16_J71_J72_3" function="internal">
        <lane id=":clusterJ16_J71_J72_3_0" index="0" speed="6.51" length="9.05" shape="107.56,92.50 110.02,92.15 111.77,91.10 112.83,89.35 113.18,86.90"/>
    </edge>
    <edge id=":clusterJ16_J71_J72_4" function="internal">
        <lane id=":clusterJ16_J71_J72_4_0" index="0" speed="9.32" length="19.63" shape="107.57,98.90 111.42,99.85 114.17,102.70 115.82,107.45 116.37,114.10"/>
    </edge>
    <edge id=":clusterJ16_J71_J72_5" function="internal">
        <lane id=":clusterJ16_J71_J72_5_0" index="0" speed="6.51" length="9.03" shape="113.17,114.10 112.82,111.65 111.77,109.90 110.02,108.85 107.57,108.50"/>
    </edge>
    <edge id=":clusterJ16_J71_J72_6" function="internal">
        <lane id=":clusterJ16_J71_J72_6_0" index="0" speed="13.89" length="27.20" shape="113.17,114.10 113.18,86.90"/>
    </edge>
    <edge id=":clusterJ18_J40_0" function="internal">
        <lane id=":clusterJ18_J40_0_0" index="0" speed="6.52" length="9.06" shape="-74.45,69.64 -76.91,70.00 -78.67,71.05 -79.73,72.80 -80.08,75.25"/>
    </edge>
    <edge id=":clusterJ18_J40_1" function="internal">
        <lane id=":clusterJ18_J40_1_0" index="0" speed="8.67" length="16.87" shape="-74.45,66.44 -78.31,65.70 -81.07,63.45 -82.72,59.70 -83.26,54.45"/>
    </edge>
    <edge id=":clusterJ18_J40_2" function="internal">
        <lane id=":clusterJ18_J40_2_0" index="0" speed="3.65" length="2.34" shape="-74.45,66.44 -75.65,65.65 -76.06,64.85"/>
    </edge>
    <edge id=":clusterJ18_J40_7" function="internal">
        <lane id=":clusterJ18_J40_7_0" index="0" speed="3.65" length="2.34" shape="-76.06,64.85 -75.66,64.05 -74.46,63.24"/>
    </edge>
    <edge id=":clusterJ18_J40_3" function="internal">
        <lane id=":clusterJ18_J40_3_0" index="0" speed="6.50" length="9.03" shape="-80.06,54.45 -79.71,56.90 -78.66,58.65 -76.91,59.70 -74.46,60.04"/>
    </edge>
    <edge id=":clusterJ18_J40_4" function="internal">
        <lane id=":clusterJ18_J40_4_0" index="0" speed="13.89" length="20.80" shape="-80.06,54.45 -80.08,75.25"/>
    </edge>
    <edge id=":clusterJ18_J40_5" function="internal">
        <lane id=":clusterJ18_J40_5_0" index="0" speed="13.89" length="20.80" shape="-83.28,75.25 -83.26,54.45"/>
    </edge>
    <edge id=":clusterJ18_J40_6" function="internal">
        <lane id=":clusterJ18_J40_6_0" index="0" speed="8.68" length="5.55" shape="-83.28,75.25 -82.72,70.00 -82.61,69.75"/>
    </edge>
    <edge id=":clusterJ18_J40_8" function="internal">
        <lane id=":clusterJ18_J40_8_0" index="0" speed="8.68" length="11.31" shape="-82.61,69.75 -81.07,66.25 -78.31,64.00 -74.46,63.24"/>
    </edge>
    <edge id=":clusterJ19_J39_0" function="internal">
        <lane id=":clusterJ19_J39_0_0" index="0" speed="13.89" length="20.80" shape="116.39,54.20 116.38,75.00"/>
    </edge>
    <edge id=":clusterJ19_J39_1" function="internal">
        <lane id=":clusterJ19_J39_1_0" index="0" speed="8.68" length="5.55" shape="116.39,54.20 115.84,59.45 115.73,59.70"/>
    </edge>
    <edge id=":clusterJ19_J39_6" function="internal">
        <lane id=":clusterJ19_J39_6_0" index="0" speed="8.68" length="11.30" shape="115.73,59.70 114.19,63.20 111.43,65.45 107.58,66.21"/>
    </edge>
    <edge id=":clusterJ19_J39_2" function="internal">
        <lane id=":clusterJ19_J39_2_0" index="0" speed="6.52" length="9.05" shape="107.57,59.81 110.03,59.45 111.78,58.40 112.84,56.65 113.19,54.20"/>
    </edge>
    <edge id=":clusterJ19_J39_3" function="internal">
        <lane id=":clusterJ19_J39_3_0" index="0" speed="8.67" length="16.86" shape="107.58,63.01 111.43,63.75 114.18,66.00 115.83,69.75 116.38,75.00"/>
    </edge>
    <edge id=":clusterJ19_J39_4" function="internal">
        <lane id=":clusterJ19_J39_4_0" index="0" speed="6.50" length="9.03" shape="113.18,75.00 112.84,72.55 111.79,70.80 110.04,69.75 107.58,69.41"/>
    </edge>
    <edge id=":clusterJ19_J39_5" function="internal">
        <lane id=":clusterJ19_J39_5_0" index="0" speed="13.89" length="20.80" shape="113.18,75.00 113.19,54.20"/>
    </edge>
    <edge id=":clusterJ20_J44_J45_0" function="internal">
        <lane id=":clusterJ20_J44_J45_0_0" index="0" speed="6.51" length="9.04" shape="-74.44,34.44 -76.89,34.79 -78.65,35.84 -79.70,37.59 -80.05,40.04"/>
    </edge>
    <edge id=":clusterJ20_J44_J45_1" function="internal">
        <lane id=":clusterJ20_J44_J45_1_0" index="0" speed="8.00" length="14.20" shape="-74.44,34.44 -78.29,33.89 -81.04,32.24 -82.69,29.49 -83.24,25.64"/>
    </edge>
    <edge id=":clusterJ20_J44_J45_2" function="internal">
        <lane id=":clusterJ20_J44_J45_2_0" index="0" speed="6.51" length="9.03" shape="-80.04,25.64 -79.69,28.09 -78.64,29.84 -76.89,30.89 -74.44,31.24"/>
    </edge>
    <edge id=":clusterJ20_J44_J45_3" function="internal">
        <lane id=":clusterJ20_J44_J45_3_0" index="0" speed="13.89" length="14.40" shape="-80.04,25.64 -80.05,40.04"/>
    </edge>
    <edge id=":clusterJ20_J44_J45_4" function="internal">
        <lane id=":clusterJ20_J44_J45_4_0" index="0" speed="13.89" length="14.40" shape="-83.25,40.04 -83.24,25.64"/>
    </edge>
    <edge id=":clusterJ20_J44_J45_5" function="internal">
        <lane id=":clusterJ20_J44_J45_5_0" index="0" speed="8.01" length="4.07" shape="-83.25,40.04 -82.70,36.19 -82.61,36.03"/>
    </edge>
    <edge id=":clusterJ20_J44_J45_6" function="internal">
        <lane id=":clusterJ20_J44_J45_6_0" index="0" speed="8.01" length="10.13" shape="-82.61,36.03 -81.05,33.44 -78.29,31.79 -74.44,31.24"/>
    </edge>
    <edge id=":clusterJ21_J38_0" function="internal">
        <lane id=":clusterJ21_J38_0_0" index="0" speed="13.89" length="14.40" shape="116.41,25.65 116.40,40.04"/>
    </edge>
    <edge id=":clusterJ21_J38_1" function="internal">
        <lane id=":clusterJ21_J38_1_0" index="0" speed="8.00" length="4.06" shape="116.41,25.65 115.85,29.49 115.76,29.64"/>
    </edge>
    <edge id=":clusterJ21_J38_6" function="internal">
        <lane id=":clusterJ21_J38_6_0" index="0" speed="8.00" length="10.13" shape="115.76,29.64 114.20,32.24 111.45,33.89 107.60,34.44"/>
    </edge>
    <edge id=":clusterJ21_J38_2" function="internal">
        <lane id=":clusterJ21_J38_2_0" index="0" speed="6.51" length="9.03" shape="107.60,31.24 110.05,30.89 111.80,29.84 112.85,28.09 113.20,25.64"/>
    </edge>
    <edge id=":clusterJ21_J38_3" function="internal">
        <lane id=":clusterJ21_J38_3_0" index="0" speed="8.00" length="14.19" shape="107.60,31.24 111.45,31.79 114.20,33.44 115.85,36.19 116.40,40.04"/>
    </edge>
    <edge id=":clusterJ21_J38_4" function="internal">
        <lane id=":clusterJ21_J38_4_0" index="0" speed="6.51" length="9.03" shape="113.20,40.04 112.85,37.59 111.80,35.84 110.05,34.79 107.60,34.44"/>
    </edge>
    <edge id=":clusterJ21_J38_5" function="internal">
        <lane id=":clusterJ21_J38_5_0" index="0" speed="13.89" length="14.40" shape="113.20,40.04 113.20,25.64"/>
    </edge>
    <edge id=":clusterJ22_J37_0" function="internal">
        <lane id=":clusterJ22_J37_0_0" index="0" speed="6.53" length="9.09" shape="-74.37,11.03 -76.84,11.38 -78.61,12.44 -79.68,14.19 -80.03,16.64"/>
    </edge>
    <edge id=":clusterJ22_J37_1" function="internal">
        <lane id=":clusterJ22_J37_1_0" index="0" speed="7.99" length="14.24" shape="-74.37,11.03 -78.24,10.49 -81.00,8.84 -82.65,6.08 -83.18,2.22"/>
    </edge>
    <edge id=":clusterJ22_J37_2" function="internal">
        <lane id=":clusterJ22_J37_2_0" index="0" speed="6.48" length="9.03" shape="-79.95,2.23 -79.61,4.69 -78.58,6.44 -76.83,7.48 -74.37,7.83"/>
    </edge>
    <edge id=":clusterJ22_J37_3" function="internal">
        <lane id=":clusterJ22_J37_3_0" index="0" speed="13.89" length="14.41" shape="-79.95,2.23 -80.03,16.64"/>
    </edge>
    <edge id=":clusterJ22_J37_4" function="internal">
        <lane id=":clusterJ22_J37_4_0" index="0" speed="13.89" length="14.42" shape="-83.23,16.64 -83.18,2.22"/>
    </edge>
    <edge id=":clusterJ22_J37_5" function="internal">
        <lane id=":clusterJ22_J37_5_0" index="0" speed="8.02" length="4.09" shape="-83.23,16.64 -82.68,12.79 -82.57,12.61"/>
    </edge>
    <edge id=":clusterJ22_J37_6" function="internal">
        <lane id=":clusterJ22_J37_6_0" index="0" speed="8.02" length="10.14" shape="-82.57,12.61 -81.01,10.04 -78.25,8.39 -74.37,7.83"/>
    </edge>
    <edge id=":clusterJ23_J70_0" function="internal">
        <lane id=":clusterJ23_J70_0_0" index="0" speed="13.89" length="14.35" shape="116.43,2.18 116.42,16.53"/>
    </edge>
    <edge id=":clusterJ23_J70_1" function="internal">
        <lane id=":clusterJ23_J70_1_0" index="0" speed="7.99" length="3.87" shape="116.43,2.18 115.88,6.01"/>
    </edge>
    <edge id=":clusterJ23_J70_6" function="internal">
        <lane id=":clusterJ23_J70_6_0" index="0" speed="7.99" length="10.28" shape="115.88,6.01 114.23,8.75 111.47,10.38 107.62,10.92"/>
    </edge>
    <edge id=":clusterJ23_J70_2" function="internal">
        <lane id=":clusterJ23_J70_2_0" index="0" speed="6.53" length="9.05" shape="107.63,7.72 110.09,7.38 111.86,6.33 112.93,4.59 113.30,2.15"/>
    </edge>
    <edge id=":clusterJ23_J70_3" function="internal">
        <lane id=":clusterJ23_J70_3_0" index="0" speed="8.00" length="14.19" shape="107.63,7.72 111.48,8.28 114.22,9.93 115.87,12.68 116.42,16.53"/>
    </edge>
    <edge id=":clusterJ23_J70_4" function="internal">
        <lane id=":clusterJ23_J70_4_0" index="0" speed="6.51" length="9.03" shape="113.22,16.53 112.87,14.08 111.82,12.33 110.07,11.28 107.62,10.92"/>
    </edge>
    <edge id=":clusterJ23_J70_5" function="internal">
        <lane id=":clusterJ23_J70_5_0" index="0" speed="13.89" length="14.38" shape="113.22,16.53 113.30,2.15"/>
    </edge>
    <edge id=":clusterJ29_J60_0" function="internal">
        <lane id=":clusterJ29_J60_0_0" index="0" speed="13.89" length="14.04" shape="25.57,10.79 11.53,10.80"/>
    </edge>
    <edge id=":clusterJ29_J60_1" function="internal">
        <lane id=":clusterJ29_J60_1_0" index="0" speed="7.84" length="3.98" shape="25.57,10.79 21.83,10.25 21.66,10.15"/>
    </edge>
    <edge id=":clusterJ29_J60_6" function="internal">
        <lane id=":clusterJ29_J60_6_0" index="0" speed="7.84" length="9.74" shape="21.66,10.15 19.17,8.66 17.60,5.99 17.12,2.27"/>
    </edge>
    <edge id=":clusterJ29_J60_2" function="internal">
        <lane id=":clusterJ29_J60_2_0" index="0" speed="6.43" length="8.71" shape="19.99,2.34 20.36,4.64 21.42,6.28 23.15,7.26 25.58,7.59"/>
    </edge>
    <edge id=":clusterJ29_J60_3" function="internal">
        <lane id=":clusterJ29_J60_3_0" index="0" speed="7.84" length="13.66" shape="19.99,2.34 19.50,6.03 17.92,8.67 15.27,10.26 11.53,10.80"/>
    </edge>
    <edge id=":clusterJ29_J60_4" function="internal">
        <lane id=":clusterJ29_J60_4_0" index="0" speed="6.46" length="8.78" shape="11.52,7.60 13.94,7.26 15.68,6.26 16.74,4.60 17.12,2.27"/>
    </edge>
    <edge id=":clusterJ29_J60_5" function="internal">
        <lane id=":clusterJ29_J60_5_0" index="0" speed="13.89" length="14.05" shape="11.52,7.60 25.58,7.59"/>
    </edge>
    <edge id=":clusterJ58_clusterJ25_J35_J36_0" function="internal">
        <lane id=":clusterJ58_clusterJ25_J35_J36_0_0" index="0" speed="6.51" length="8.99" shape="-74.20,-19.83 -76.64,-19.48 -78.39,-18.44 -79.45,-16.70 -79.82,-14.28"/>
    </edge>
    <edge id=":clusterJ58_clusterJ25_J35_J36_1" function="internal">
        <lane id=":clusterJ58_clusterJ25_J35_J36_1_0" index="0" speed="8.03" length="14.23" shape="-74.20,-19.83 -78.10,-20.37 -80.88,-22.01 -82.57,-24.73 -83.15,-28.55"/>
    </edge>
    <edge id=":clusterJ58_clusterJ25_J35_J36_2" function="internal">
        <lane id=":clusterJ58_clusterJ25_J35_J36_2_0" index="0" speed="6.51" length="8.98" shape="-79.82,-28.57 -79.45,-26.14 -78.39,-24.41 -76.64,-23.37 -74.21,-23.03"/>
    </edge>
    <edge id=":clusterJ58_clusterJ25_J35_J36_3" function="internal">
        <lane id=":clusterJ58_clusterJ25_J35_J36_3_0" index="0" speed="13.89" length="14.30" shape="-79.82,-28.57 -79.82,-14.28"/>
    </edge>
    <edge id=":clusterJ58_clusterJ25_J35_J36_4" function="internal">
        <lane id=":clusterJ58_clusterJ25_J35_J36_4_0" index="0" speed="13.89" length="14.25" shape="-83.11,-14.30 -83.15,-28.55"/>
    </edge>
    <edge id=":clusterJ58_clusterJ25_J35_J36_5" function="internal">
        <lane id=":clusterJ58_clusterJ25_J35_J36_5_0" index="0" speed="8.02" length="4.17" shape="-83.11,-14.30 -82.54,-18.11 -82.38,-18.39"/>
    </edge>
    <edge id=":clusterJ58_clusterJ25_J35_J36_6" function="internal">
        <lane id=":clusterJ58_clusterJ25_J35_J36_6_0" index="0" speed="8.02" length="10.02" shape="-82.38,-18.39 -80.87,-20.84 -78.09,-22.48 -74.21,-23.03"/>
    </edge>
    <edge id=":clusterJ63_clusterJ30_J46_0" function="internal">
        <lane id=":clusterJ63_clusterJ30_J46_0_0" index="0" speed="6.46" length="8.77" shape="24.82,-53.50 22.38,-53.17 20.62,-52.19 19.55,-50.55 19.17,-48.25"/>
    </edge>
    <edge id=":clusterJ63_clusterJ30_J46_1" function="internal">
        <lane id=":clusterJ63_clusterJ30_J46_1_0" index="0" speed="13.89" length="14.46" shape="24.82,-53.50 10.37,-53.49"/>
    </edge>
    <edge id=":clusterJ63_clusterJ30_J46_2" function="internal">
        <lane id=":clusterJ63_clusterJ30_J46_2_0" index="0" speed="13.89" length="14.46" shape="10.36,-56.60 24.82,-56.61"/>
    </edge>
    <edge id=":clusterJ63_clusterJ30_J46_3" function="internal">
        <lane id=":clusterJ63_clusterJ30_J46_3_0" index="0" speed="7.88" length="3.94" shape="10.36,-56.60 14.26,-56.08"/>
    </edge>
    <edge id=":clusterJ63_clusterJ30_J46_6" function="internal">
        <lane id=":clusterJ63_clusterJ30_J46_6_0" index="0" speed="7.88" length="9.95" shape="14.26,-56.08 17.03,-54.51 18.67,-51.90 19.17,-48.25"/>
    </edge>
    <edge id=":clusterJ63_clusterJ30_J46_4" function="internal">
        <lane id=":clusterJ63_clusterJ30_J46_4_0" index="0" speed="6.38" length="8.71" shape="15.93,-48.29 15.60,-50.57 14.57,-52.19 12.82,-53.17 10.37,-53.49"/>
    </edge>
    <edge id=":clusterJ63_clusterJ30_J46_5" function="internal">
        <lane id=":clusterJ63_clusterJ30_J46_5_0" index="0" speed="7.94" length="13.85" shape="15.93,-48.29 16.52,-51.92 18.19,-54.52 20.96,-56.08 24.82,-56.61"/>
    </edge>
    <edge id=":clusterJ65_clusterJ56_J57_0" function="internal">
        <lane id=":clusterJ65_clusterJ56_J57_0_0" index="0" speed="13.89" length="14.49" shape="116.45,-28.68 116.45,-14.20"/>
    </edge>
    <edge id=":clusterJ65_clusterJ56_J57_1" function="internal">
        <lane id=":clusterJ65_clusterJ56_J57_1_0" index="0" speed="8.00" length="3.28" shape="116.45,-28.68 116.01,-25.43"/>
    </edge>
    <edge id=":clusterJ65_clusterJ56_J57_6" function="internal">
        <lane id=":clusterJ65_clusterJ56_J57_6_0" index="0" speed="8.00" length="10.78" shape="116.01,-25.43 115.92,-24.82 114.32,-22.04 111.65,-20.35 107.90,-19.75"/>
    </edge>
    <edge id=":clusterJ65_clusterJ56_J57_2" function="internal">
        <lane id=":clusterJ65_clusterJ56_J57_2_0" index="0" speed="6.55" length="9.13" shape="107.86,-22.98 110.36,-23.36 112.14,-24.44 113.19,-26.20 113.52,-28.65"/>
    </edge>
    <edge id=":clusterJ65_clusterJ56_J57_3" function="internal">
        <lane id=":clusterJ65_clusterJ56_J57_3_0" index="0" speed="7.93" length="14.06" shape="107.86,-22.98 111.62,-22.47 114.31,-20.84 115.92,-18.08 116.45,-14.20"/>
    </edge>
    <edge id=":clusterJ65_clusterJ56_J57_4" function="internal">
        <lane id=":clusterJ65_clusterJ56_J57_4_0" index="0" speed="6.45" length="9.02" shape="113.48,-14.20 113.15,-16.66 112.12,-18.40 110.37,-19.43 107.90,-19.75"/>
    </edge>
    <edge id=":clusterJ65_clusterJ56_J57_5" function="internal">
        <lane id=":clusterJ65_clusterJ56_J57_5_0" index="0" speed="13.89" length="14.45" shape="113.48,-14.20 113.52,-28.65"/>
    </edge>
    <edge id=":clusterJ75_J77_0" function="internal">
        <lane id=":clusterJ75_J77_0_0" index="0" speed="13.89" length="14.39" shape="16.76,137.25 2.37,137.24"/>
    </edge>
    <edge id=":clusterJ75_J77_1" function="internal">
        <lane id=":clusterJ75_J77_1_0" index="0" speed="8.01" length="4.06" shape="16.76,137.25 12.91,136.69 12.76,136.60"/>
    </edge>
    <edge id=":clusterJ75_J77_6" function="internal">
        <lane id=":clusterJ75_J77_6_0" index="0" speed="8.01" length="10.14" shape="12.76,136.60 10.16,135.04 8.51,132.29 7.96,128.43"/>
    </edge>
    <edge id=":clusterJ75_J77_2" function="internal">
        <lane id=":clusterJ75_J77_2_0" index="0" speed="6.52" length="9.04" shape="11.16,128.43 11.51,130.89 12.56,132.64 14.31,133.69 16.76,134.05"/>
    </edge>
    <edge id=":clusterJ75_J77_3" function="internal">
        <lane id=":clusterJ75_J77_3_0" index="0" speed="8.00" length="14.19" shape="11.16,128.43 10.61,132.28 8.96,135.03 6.22,136.69 2.37,137.24"/>
    </edge>
    <edge id=":clusterJ75_J77_4" function="internal">
        <lane id=":clusterJ75_J77_4_0" index="0" speed="6.51" length="9.03" shape="2.36,134.04 4.81,133.69 6.56,132.64 7.61,130.88 7.96,128.43"/>
    </edge>
    <edge id=":clusterJ75_J77_5" function="internal">
        <lane id=":clusterJ75_J77_5_0" index="0" speed="13.89" length="14.40" shape="2.36,134.04 16.76,134.05"/>
    </edge>
    <edge id=":clusterJ76_J78_0" function="internal">
        <lane id=":clusterJ76_J78_0_0" index="0" speed="6.51" length="9.03" shape="7.94,114.15 7.59,111.70 6.54,109.95 4.79,108.90 2.34,108.55"/>
    </edge>
    <edge id=":clusterJ76_J78_1" function="internal">
        <lane id=":clusterJ76_J78_1_0" index="0" speed="6.51" length="9.03" shape="16.74,108.55 14.29,108.90 12.54,109.95 11.49,111.70 11.14,114.15"/>
    </edge>
    <edge id=":clusterJ76_J78_2" function="internal">
        <lane id=":clusterJ76_J78_2_0" index="0" speed="13.89" length="14.40" shape="16.74,108.55 2.34,108.55"/>
        <lane id=":clusterJ76_J78_2_1" index="1" speed="13.89" length="14.40" shape="16.74,105.35 2.34,105.35"/>
        <lane id=":clusterJ76_J78_2_2" index="2" speed="13.89" length="14.40" shape="16.73,102.15 2.33,102.15"/>
    </edge>
    <edge id=":clusterJ79_J81_0" function="internal">
        <lane id=":clusterJ79_J81_0_0" index="0" speed="6.51" length="9.03" shape="10.92,86.95 11.27,89.40 12.32,91.15 14.07,92.20 16.52,92.55"/>
    </edge>
    <edge id=":clusterJ79_J81_1" function="internal">
        <lane id=":clusterJ79_J81_1_0" index="0" speed="6.51" length="9.03" shape="2.12,92.55 4.57,92.20 6.32,91.15 7.37,89.40 7.72,86.95"/>
    </edge>
    <edge id=":clusterJ79_J81_2" function="internal">
        <lane id=":clusterJ79_J81_2_0" index="0" speed="13.89" length="14.40" shape="2.12,92.55 16.52,92.55"/>
        <lane id=":clusterJ79_J81_2_1" index="1" speed="13.89" length="14.40" shape="2.12,95.75 16.52,95.75"/>
        <lane id=":clusterJ79_J81_2_2" index="2" speed="13.89" length="14.40" shape="2.13,98.95 16.53,98.95"/>
    </edge>
    <edge id=":clusterJ80_J82_0" function="internal">
        <lane id=":clusterJ80_J82_0_0" index="0" speed="6.51" length="9.03" shape="7.71,75.14 7.36,72.69 6.30,70.94 4.55,69.89 2.10,69.54"/>
    </edge>
    <edge id=":clusterJ80_J82_1" function="internal">
        <lane id=":clusterJ80_J82_1_0" index="0" speed="6.51" length="9.03" shape="16.50,69.53 14.05,69.88 12.30,70.93 11.25,72.68 10.90,75.13"/>
    </edge>
    <edge id=":clusterJ80_J82_2" function="internal">
        <lane id=":clusterJ80_J82_2_0" index="0" speed="13.89" length="14.40" shape="16.50,69.53 2.10,69.54"/>
        <lane id=":clusterJ80_J82_2_1" index="1" speed="13.89" length="14.40" shape="16.49,66.33 2.10,66.34"/>
    </edge>

    <edge id="-E10" from="clusterJ29_J60" to="clusterJ22_J37" priority="-1" shape="18.33,9.18 -78.79,9.44">
        <lane id="-E10_0" index="0" speed="13.89" length="85.90" shape="11.53,10.80 -74.37,11.03"/>
    </edge>
    <edge id="-E10.98" from="clusterJ23_J70" to="clusterJ29_J60" priority="-1" shape="111.75,9.33 18.33,9.18">
        <lane id="-E10.98_0" index="0" speed="13.89" length="82.05" shape="107.62,10.92 25.57,10.79"/>
    </edge>
    <edge id="-E12" from="J59" to="clusterJ58_clusterJ25_J35_J36" priority="-1">
        <lane id="-E12_0" index="0" speed="13.89" length="66.06" shape="-8.15,-19.91 -74.20,-19.83"/>
    </edge>
    <edge id="-E13" from="J61" to="clusterJ29_J60" priority="-1">
        <lane id="-E13_0" index="0" speed="13.89" length="0.33" shape="19.99,2.01 19.99,2.34"/>
    </edge>
    <edge id="-E14" from="clusterJ63_clusterJ30_J46" to="J62" priority="-1">
        <lane id="-E14_0" index="0" speed="13.89" length="0.20" shape="19.17,-48.25 19.17,-48.05"/>
    </edge>
    <edge id="-E15" from="clusterJ65_clusterJ56_J57" to="J64" priority="-1">
        <lane id="-E15_0" index="0" speed="13.89" length="65.27" shape="107.90,-19.75 42.63,-18.91"/>
    </edge>
    <edge id="-E2" from="J5" to="clusterJ58_clusterJ25_J35_J36" priority="-1" shape="-81.73,-55.03 -81.35,-22.49">
        <lane id="-E2_0" index="0" speed="13.89" length="23.24" shape="-80.09,-51.81 -79.82,-28.57"/>
    </edge>
    <edge id="-E2.24" from="clusterJ58_clusterJ25_J35_J36" to="clusterJ22_J37" priority="-1" shape="-81.35,-22.49 -81.63,12.79">
        <lane id="-E2.24_0" index="0" speed="13.89" length="16.51" shape="-79.82,-14.28 -79.95,2.23"/>
    </edge>
    <edge id="-E2.67" from="clusterJ22_J37" to="clusterJ20_J44_J45" priority="-1" shape="-81.63,12.79 -81.64,31.65">
        <lane id="-E2.67_0" index="0" speed="13.89" length="9.00" shape="-80.03,16.64 -80.04,25.64"/>
    </edge>
    <edge id="-E2.85" from="clusterJ20_J44_J45" to="clusterJ18_J40" priority="-1" shape="-81.64,31.65 -81.67,66.53">