<?xml version="1.0" encoding="UTF-8"?>

<!-- generated on 2025-12-10 19:47:39 by Eclipse SUMO netedit Version 1.24.0
-->

<routes xmlns:xsi="http://www.w3.org/2001/XMLSchema-instance" xsi:noNamespaceSchemaLocation="http://sumo.dlr.de/xsd/routes_file.xsd">
    <!-- Routes -->
    <route id="r_0" edges="-E8 -E2 -E1 -E0 -E10 E5"/>
    <!-- Vehicles, persons and containers (sorted by depart) -->
    <flow id="f_0" begin="0.00" color="red" from="-E11" to="E3" via="E0 E1 E2" end="200.00" vehsPerHour="1800"/>
    <flow id="f_1" begin="0.00" color="blue" from="-E12" to="E3" via="E5 E7" end="400.00" vehsPerHour="1800"/>
</routes>
