<?xml version="1.0" encoding="UTF-8"?>

<!-- generated on 2025-12-13 08:41:06 by Eclipse SUMO netedit Version 1.24.0
<neteditConfiguration xmlns:xsi="http://www.w3.org/2001/XMLSchema-instance" xsi:noNamespaceSchemaLocation="http://sumo.dlr.de/xsd/neteditConfiguration.xsd">

    <input>
        <sumocfg-file value="C:\Users\admin\Desktop\Hard\WrapperDev\simulationrealtime\resource\test_6_lane.sumocfg"/>
        <route-files value="C:\Users\admin\Desktop\Hard\WrapperDev\simulationrealtime\resource\test_6_lane.rou.xml"/>
        <sumo-net-file value="C:\Users\admin\Desktop\Hard\WrapperDev\simulationrealtime\resource\test_6_lane.net.xml"/>
    </input>

    <output>
        <output-file value="C:\Users\admin\Desktop\Hard\WrapperDev\simulationrealtime\resource\test_6_lane.net.xml"/>
    </output>

    <processing>
        <geometry.min-radius.fix.railways value="false"/>
        <geometry.avoid-overlap value="false"/>
        <geometry.max-grade.fix value="false"/>
        <offset.disable-normalization value="true"/>
        <lefthand value="0"/>
    </processing>

    <junctions>
        <no-turnarounds value="true"/>
        <junctions.corner-detail value="5"/>
        <junctions.limit-turn-speed value="5.50"/>
        <rectangular-lane-cut value="0"/>
    </junctions>

    <pedestrian>
        <walkingareas value="0"/>
    </pedestrian>

</neteditConfiguration>
-->

<net version="1.20" junctionCornerDetail="5" limitTurnSpeed="5.50" avoidOverlap="0" xmlns:xsi="http://www.w3.org/2001/XMLSchema-instance" xsi:noNamespaceSchemaLocation="http://sumo.dlr.de/xsd/net_file.xsd">

    <location netOffset="0.00,0.00" convBoundary="-70.80,-30.08,53.63,32.71" origBoundary="-10000000000.00,-10000000000.00,10000000000.00,10000000000.00" projParameter="!"/>

    <edge id=":J1_0" function="internal">
        <lane id=":J1_0_0" index="0" speed="13.89" length="13.42" shape="2.39,11.32 -0.87,9.52 -3.22,8.35 -5.69,7.80 -9.34,7.84"/>
        <lane id=":J1_0_1" index="1" speed="13.89" length="13.42" shape="3.87,8.49 0.14,6.45 -2.56,5.16 -5.40,4.58 -9.57,4.65"/>
    </edge>
    <edge id=":J1_2" function="internal">
        <lane id=":J1_2_0" index="0" speed="7.40" length="4.12" shape="3.87,8.49 0.50,6.12"/>
    </edge>
    <edge id=":J1_7" function="internal">
        <lane id=":J1_7_0" index="0" speed="7.40" length="12.73" shape="0.50,6.12 -0.27,5.57 -1.73,2.55 -0.51,-0.58 3.39,-3.81"/>
    </edge>
    <edge id=":J1_3" function="internal">
        <lane id=":J1_3_0" index="0" speed="5.66" length="9.25" shape="5.09,-1.10 2.95,0.68 2.28,2.39 3.08,4.05 5.35,5.65"/>
    </edge>
    <edge id=":J1_4" function="internal">
        <lane id=":J1_4_0" index="0" speed="13.89" length="15.98" shape="5.09,-1.10 2.12,0.84 -0.88,2.56 -4.56,3.88 -9.57,4.65"/>
    </edge>
    <edge id=":J1_5" function="internal">
        <lane id=":J1_5_0" index="0" speed="13.89" length="14.35" shape="-9.80,1.46 -6.23,0.85 -2.93,-0.32 0.24,-1.92 3.39,-3.81"/>
    </edge>
    <edge id=":J1_6" function="internal">
        <lane id=":J1_6_0" index="0" speed="13.89" length="15.90" shape="-9.80,1.46 -5.95,1.63 -2.02,2.55 1.82,3.97 5.35,5.65"/>
    </edge>

    <edge id="-E0" from="J1" to="J0" priority="-1">
        <lane id="-E0_0" index="0" speed="13.89" length="61.28" shape="-9.34,7.84 -70.45,12.31"/>
        <lane id="-E0_1" index="1" speed="13.89" length="61.28" shape="-9.57,4.65 -70.68,9.12"/>
    </edge>
    <edge id="-E1" from="J2" to="J1" priority="-1">
        <lane id="-E1_0" index="0" speed="13.89" length="55.32" shape="51.41,36.96 2.39,11.32"/>
        <lane id="-E1_1" index="1" speed="13.89" length="55.32" shape="52.89,34.13 3.87,8.49"/>
    </edge>
    <edge id="-E2" from="J3" to="J1" priority="-1">
        <lane id="-E2_0" index="0" speed="13.89" length="52.06" shape="49.22,-28.72 5.09,-1.10"/>
    </edge>
    <edge id="E0" from="J0" to="J1" priority="-1">
        <lane id="E0_0" index="0" speed="13.89" length="61.28" shape="-70.92,5.92 -9.80,1.46"/>
    </edge>
    <edge id="E1" from="J1" to="J2" priority="-1">
        <lane id="E1_0" index="0" speed="13.89" length="55.32" shape="5.35,5.65 54.37,31.29"/>
    </edge>
    <edge id="E2" from="J1" to="J3" priority="-1">
        <lane id="E2_0" index="0" speed="13.89" length="52.06" shape="3.39,-3.81 47.52,-31.44"/>
    </edge>

    <tlLogic id="J1" type="static" programID="0" offset="0">
        <phase duration="42" state="GGgrrGG"/>
        <phase duration="3"  state="yyyrrGy"/>
        <phase duration="42" state="rrrGGGr"/>
        <phase duration="3"  state="rrryyGr"/>
    </tlLogic>

    <junction id="J0" type="dead_end" x="-70.80" y="7.52" incLanes="-E0_0 -E0_1" intLanes="" shape="-70.80,7.52 -70.33,13.90 -70.80,7.52"/>
    <junction id="J1" type="traffic_light" x="-3.88" y="2.63" incLanes="-E1_0 -E1_1 -E2_0 E0_0" intLanes=":J1_0_0 :J1_0_1 :J1_7_0 :J1_3_0 :J1_4_0 :J1_5_0 :J1_6_0" shape="1.64,12.74 6.09,4.23 4.50,2.97 4.28,2.31 4.45,1.64 5.00,0.96 5.94,0.26 2.54,-5.17 0.11,-3.59 -1.73,-2.39 -3.31,-1.50 -4.98,-0.87 -7.07,-0.43 -9.92,-0.14 -9.22,9.44 -6.80,9.36 -5.01,9.53 -3.55,9.95 -2.15,10.62 -0.51,11.55">
        <request index="0" response="0000000" foes="0010000" cont="0"/>
        <request index="1" response="0000000" foes="0010000" cont="0"/>
        <request index="2" response="1100000" foes="1110000" cont="1"/>
        <request index="3" response="1000000" foes="1000000" cont="0"/>
        <request index="4" response="1000111" foes="1000111" cont="0"/>
        <request index="5" response="0000000" foes="0000100" cont="0"/>
        <request index="6" response="0000000" foes="0011100" cont="0"/>
    </junction>
    <junction id="J2" type="dead_end" x="53.63" y="32.71" incLanes="E1_0" intLanes="" shape="53.63,32.71 55.11,29.87 53.63,32.71"/>
    <junction id="J3" type="dead_end" x="48.37" y="-30.08" incLanes="E2_0" intLanes="" shape="48.37,-30.08 46.67,-32.79 48.37,-30.08"/>

    <junction id=":J1_7_0" type="internal" x="0.50" y="6.12" incLanes=":J1_2_0 E0_0" intLanes=":J1_4_0 :J1_5_0 :J1_6_0"/>

    <connection from="-E1" to="-E0" fromLane="0" toLane="0" via=":J1_0_0" tl="J1" linkIndex="0" dir="s" state="O"/>
    <connection from="-E1" to="-E0" fromLane="1" toLane="1" via=":J1_0_1" tl="J1" linkIndex="1" dir="s" state="O"/>
    <connection from="-E1" to="E2" fromLane="1" toLane="0" via=":J1_2_0" tl="J1" linkIndex="2" dir="l" state="o"/>
    <connection from="-E2" to="E1" fromLane="0" toLane="0" via=":J1_3_0" tl="J1" linkIndex="3" dir="r" state="o"/>
    <connection from="-E2" to="-E0" fromLane="0" toLane="1" via=":J1_4_0" tl="J1" linkIndex="4" dir="s" state="o"/>
    <connection from="E0" to="E2" fromLane="0" toLane="0" via=":J1_5_0" tl="J1" linkIndex="5" dir="R" state="O"/>
    <connection from="E0" to="E1" fromLane="0" toLane="0" via=":J1_6_0" tl="J1" linkIndex="6" dir="s" state="O"/>

    <connection from=":J1_0" to="-E0" fromLane="0" toLane="0" dir="s" state="M"/>
    <connection from=":J1_0" to="-E0" fromLane="1" toLane="1" dir="s" state="M"/>
    <connection from=":J1_2" to="E2" fromLane="0" toLane="0" via=":J1_7_0" dir="l" state="m"/>
    <connection from=":J1_7" to="E2" fromLane="0" toLane="0" dir="l" state="M"/>
    <connection from=":J1_3" to="E1" fromLane="0" toLane="0" dir="r" state="M"/>
    <connection from=":J1_4" to="-E0" fromLane="0" toLane="1" dir="s" state="M"/>
    <connection from=":J1_5" to="E2" fromLane="0" toLane="0" dir="R" state="M"/>
    <connection from=":J1_6" to="E1" fromLane="0" toLane="0" dir="s" state="M"/>

</net>
