<?xml version="1.0" encoding="UTF-8"?>

<!-- generated on 2025-12-14 13:34:25 by Eclipse SUMO netedit Version 1.24.0
<neteditConfiguration xmlns:xsi="http://www.w3.org/2001/XMLSchema-instance" xsi:noNamespaceSchemaLocation="http://sumo.dlr.de/xsd/neteditConfiguration.xsd">

    <input>
        <sumocfg-file value="C:\Users\admin\Desktop\Hard\WrapperDev\simulationrealtime\resource\test_7_huge.sumocfg"/>
        <route-files value="C:\Users\admin\Desktop\Hard\WrapperDev\simulationrealtime\resource\test_7_huge.rou.xml"/>
        <sumo-net-file value="C:\Users\admin\Desktop\Hard\WrapperDev\simulationrealtime\resource\test_7_huge.net.xml"/>
    </input>

    <output>
        <output-file value="C:\Users\admin\Desktop\Hard\WrapperDev\simulationrealtime\resource\test_7_huge.net.xml"/>
    </output>

    <processing>
        <geometry.min-radius.fix.railways value="false"/>
        <geometry.avoid-overlap value="false"/>
        <geometry.max-grade.fix value="false"/>
        <offset.disable-normalization value="true"/>
        <lefthand value="0"/>
    </processing>

    <junctions>
        <no-turnarounds value="true"/>
        <junctions.corner-detail value="5"/>
        <junctions.limit-turn-speed value="5.50"/>
        <rectangular-lane-cut value="0"/>
    </junctions>

    <pedestrian>
        <walkingareas value="0"/>
    </pedestrian>

</neteditConfiguration>
-->

<net version="1.20" junctionCornerDetail="5" limitTurnSpeed="5.50" avoidOverlap="0" xmlns:xsi="http://www.w3.org/2001/XMLSchema-instance" xsi:noNamespaceSchemaLocation="http://sumo.dlr.de/xsd/net_file.xsd">

    <location netOffset="0.00,0.00" convBoundary="-247.31,-120.90,216.97,66.10" origBoundary="-10000000000.00,-10000000000.00,10000000000.00,10000000000.00" projParameter="!"/>

    <edge id=":J0_0" function="internal">
        <lane id=":J0_0_0" index="0" speed="11.89" length="3.11" shape="-80.62,24.41 -81.44,24.82 -82.03,25.05 -82.66,25.17 -83.57,25.26"/>
    </edge>
    <edge id=":J0_1" function="internal">
        <lane id=":J0_1_0" index="0" speed="9.30" length="1.87" shape="-83.85,22.07 -83.30,22.02 -82.92,21.95 -82.57,21.81 -82.07,21.56"/>
    </edge>
    <edge id=":J1_0" function="internal">
        <lane id=":J1_0_0" index="0" speed="13.89" length="0.59" shape="-15.37,-8.91 -15.54,-8.85 -15.65,-8.81 -15.76,-8.75 -15.91,-8.67"/>
    </edge>
    <edge id=":J1_1" function="internal">
        <lane id=":J1_1_0" index="0" speed="13.89" length="0.99" shape="-17.37,-11.52 -17.11,-11.66 -16.93,-11.74 -16.74,-11.82 -16.46,-11.92"/>
    </edge>
    <edge id=":J11_0" function="internal">
        <lane id=":J11_0_0" index="0" speed="6.10" length="7.05" shape="-106.98,-5.98 -107.33,-4.11 -108.18,-2.73 -109.54,-1.83 -111.39,-1.42"/>
    </edge>
    <edge id=":J11_1" function="internal">
        <lane id=":J11_1_0" index="0" speed="3.92" length="2.35" shape="-111.65,-4.61 -111.03,-4.75 -110.58,-5.05 -110.29,-5.51 -110.17,-6.13"/>
    </edge>
    <edge id=":J12_0" function="internal">
        <lane id=":J12_0_0" index="0" speed="9.39" length="10.51" shape="-102.03,-27.23 -103.83,-25.68 -105.15,-23.64 -106.01,-21.11 -106.40,-18.10"/>
    </edge>
    <edge id=":J12_1" function="internal">
        <lane id=":J12_1_0" index="0" speed="13.89" length="13.59" shape="-102.03,-27.23 -105.13,-25.57 -108.22,-24.56 -111.46,-24.06 -115.01,-23.92"/>
    </edge>
    <edge id=":J12_2" function="internal">
        <lane id=":J12_2_0" index="0" speed="13.89" length="11.81" shape="-115.01,-27.12 -111.73,-27.18 -109.09,-27.51 -106.59,-28.34 -103.76,-29.92"/>
    </edge>
    <edge id=":J12_3" function="internal">
        <lane id=":J12_3_0" index="0" speed="7.92" length="3.79" shape="-115.01,-27.12 -111.26,-26.58"/>
    </edge>
    <edge id=":J12_6" function="internal">
        <lane id=":J12_6_0" index="0" speed="7.92" length="10.59" shape="-111.26,-26.58 -111.08,-26.56 -108.34,-24.86 -106.78,-22.04 -106.40,-18.10"/>
    </edge>
    <edge id=":J12_4" function="internal">
        <lane id=":J12_4_0" index="0" speed="6.41" length="9.04" shape="-109.60,-18.25 -109.83,-20.73 -110.81,-22.50 -112.54,-23.57 -115.01,-23.92"/>
    </edge>
    <edge id=":J12_5" function="internal">
        <lane id=":J12_5_0" index="0" speed="10.61" length="13.56" shape="-109.60,-18.25 -109.09,-22.04 -107.94,-25.25 -106.17,-27.88 -103.76,-29.92"/>
    </edge>
    <edge id=":J13_0" function="internal">
        <lane id=":J13_0_0" index="0" speed="7.21" length="10.06" shape="-137.94,-18.02 -138.49,-20.68 -139.72,-22.66 -141.65,-23.94 -144.28,-24.53"/>
    </edge>
    <edge id=":J13_1" function="internal">
        <lane id=":J13_1_0" index="0" speed="13.89" length="14.91" shape="-137.94,-18.02 -138.14,-21.75 -138.24,-25.46 -138.23,-29.18 -138.13,-32.92"/>
    </edge>
    <edge id=":J13_2" function="internal">
        <lane id=":J13_2_0" index="0" speed="7.89" length="4.23" shape="-137.94,-18.02 -137.63,-22.00 -137.52,-22.21"/>
    </edge>
    <edge id=":J13_12" function="internal">
        <lane id=":J13_12_0" index="0" speed="7.89" length="10.22" shape="-137.52,-22.21 -136.11,-24.84 -133.37,-26.55 -129.41,-27.12"/>
    </edge>
    <edge id=":J13_3" function="internal">
        <lane id=":J13_3_0" index="0" speed="6.37" length="9.04" shape="-129.41,-23.92 -131.89,-23.56 -133.60,-22.50 -134.56,-20.72 -134.75,-18.22"/>
    </edge>
    <edge id=":J13_4" function="internal">
        <lane id=":J13_4_0" index="0" speed="13.89" length="14.88" shape="-129.41,-23.92 -144.28,-24.53"/>
    </edge>
    <edge id=":J13_5" function="internal">
        <lane id=":J13_5_0" index="0" speed="7.95" length="4.47" shape="-129.41,-23.92 -133.37,-24.48 -133.77,-24.73"/>
    </edge>
    <edge id=":J13_13" function="internal">
        <lane id=":J13_13_0" index="0" speed="7.95" length="9.95" shape="-133.77,-24.73 -136.13,-26.17 -137.72,-28.98 -138.13,-32.92"/>
    </edge>
    <edge id=":J13_6" function="internal">
        <lane id=":J13_6_0" index="0" speed="6.44" length="9.11" shape="-134.94,-32.79 -134.68,-30.31 -133.67,-28.54 -131.92,-27.47 -129.41,-27.12"/>
    </edge>
    <edge id=":J13_7" function="internal">
        <lane id=":J13_7_0" index="0" speed="13.89" length="14.57" shape="-134.94,-32.79 -135.04,-29.11 -135.04,-25.50 -134.95,-21.90 -134.75,-18.22"/>
    </edge>
    <edge id=":J13_8" function="internal">
        <lane id=":J13_8_0" index="0" speed="7.93" length="3.96" shape="-134.94,-32.79 -135.66,-28.90"/>
    </edge>
    <edge id=":J13_14" function="internal">
        <lane id=":J13_14_0" index="0" speed="7.93" length="10.40" shape="-135.66,-28.90 -137.45,-26.22 -140.33,-24.77 -144.28,-24.53"/>
    </edge>
    <edge id=":J13_9" function="internal">
        <lane id=":J13_9_0" index="0" speed="6.42" length="9.04" shape="-144.01,-27.72 -141.53,-27.87 -139.72,-28.79 -138.59,-30.47 -138.13,-32.92"/>
    </edge>
    <edge id=":J13_10" function="internal">
        <lane id=":J13_10_0" index="0" speed="13.89" length="14.61" shape="-144.01,-27.72 -129.41,-27.12"/>
    </edge>
    <edge id=":J13_11" function="internal">
        <lane id=":J13_11_0" index="0" speed="8.60" length="3.93" shape="-144.01,-27.72 -140.17,-26.86"/>
    </edge>
    <edge id=":J13_15" function="internal">
        <lane id=":J13_15_0" index="0" speed="8.60" length="10.75" shape="-140.17,-26.86 -137.35,-24.99 -135.54,-22.11 -134.75,-18.22"/>
    </edge>
    <edge id=":J15_0" function="internal">
        <lane id=":J15_0_0" index="0" speed="7.50" length="10.73" shape="-169.25,-20.08 -170.00,-22.96 -171.41,-25.06 -173.47,-26.37 -176.20,-26.90"/>
    </edge>
    <edge id=":J15_1" function="internal">
        <lane id=":J15_1_0" index="0" speed="13.89" length="15.56" shape="-169.25,-20.08 -169.69,-23.89 -170.07,-27.81 -170.36,-31.74 -170.55,-35.57"/>
    </edge>
    <edge id=":J15_2" function="internal">
        <lane id=":J15_2_0" index="0" speed="7.68" length="4.38" shape="-169.25,-20.08 -169.18,-24.34 -169.13,-24.45"/>
    </edge>
    <edge id=":J15_12" function="internal">
        <lane id=":J15_12_0" index="0" speed="7.68" length="10.68" shape="-169.13,-24.45 -167.72,-27.26 -164.86,-28.85 -160.61,-29.10"/>
    </edge>
    <edge id=":J15_3" function="internal">
        <lane id=":J15_3_0" index="0" speed="6.10" length="9.06" shape="-160.87,-25.92 -163.43,-25.76 -165.15,-24.81 -166.03,-23.05 -166.07,-20.48"/>
    </edge>
    <edge id=":J15_4" function="internal">
        <lane id=":J15_4_0" index="0" speed="13.89" length="15.36" shape="-160.87,-25.92 -176.20,-26.90"/>
    </edge>
    <edge id=":J15_5" function="internal">
        <lane id=":J15_5_0" index="0" speed="8.65" length="4.20" shape="-160.87,-25.92 -164.98,-26.81"/>
    </edge>
    <edge id=":J15_13" function="internal">
        <lane id=":J15_13_0" index="0" speed="8.65" length="11.00" shape="-164.98,-26.81 -167.96,-28.72 -169.82,-31.64 -170.55,-35.57"/>
    </edge>
    <edge id=":J15_6" function="internal">
        <lane id=":J15_6_0" index="0" speed="7.27" length="10.48" shape="-167.35,-35.69 -166.85,-33.01 -165.55,-31.02 -163.47,-29.72 -160.61,-29.10"/>
    </edge>
    <edge id=":J15_7" function="internal">
        <lane id=":J15_7_0" index="0" speed="13.89" length="15.27" shape="-167.35,-35.69 -167.16,-31.91 -166.88,-28.07 -166.51,-24.25 -166.07,-20.48"/>
    </edge>
    <edge id=":J15_8" function="internal">
        <lane id=":J15_8_0" index="0" speed="7.86" length="4.02" shape="-167.35,-35.69 -167.78,-31.70"/>
    </edge>
    <edge id=":J15_14" function="internal">
        <lane id=":J15_14_0" index="0" speed="7.86" length="10.49" shape="-167.78,-31.70 -169.39,-28.90 -172.20,-27.30 -176.20,-26.90"/>
    </edge>
    <edge id=":J15_9" function="internal">
        <lane id=":J15_9_0" index="0" speed="6.34" length="9.04" shape="-176.06,-30.09 -173.57,-30.34 -171.82,-31.34 -170.81,-33.08 -170.55,-35.57"/>
    </edge>
    <edge id=":J15_10" function="internal">
        <lane id=":J15_10_0" index="0" speed="13.89" length="15.49" shape="-176.06,-30.09 -160.61,-29.10"/>
    </edge>
    <edge id=":J15_11" function="internal">
        <lane id=":J15_11_0" index="0" speed="8.84" length="4.33" shape="-176.06,-30.09 -172.14,-29.35 -171.86,-29.17"/>
    </edge>
    <edge id=":J15_15" function="internal">
        <lane id=":J15_15_0" index="0" speed="8.84" length="10.95" shape="-171.86,-29.17 -169.16,-27.50 -167.14,-24.54 -166.07,-20.48"/>
    </edge>
    <edge id=":J16_0" function="internal">
        <lane id=":J16_0_0" index="0" speed="6.09" length="7.18" shape="-200.14,-3.72 -202.05,-4.10 -203.43,-5.00 -204.30,-6.40 -204.65,-8.31"/>
    </edge>
    <edge id=":J16_1" function="internal">
        <lane id=":J16_1_0" index="0" speed="3.91" length="2.39" shape="-201.45,-8.44 -201.34,-7.81 -201.05,-7.34 -200.58,-7.04 -199.95,-6.91"/>
    </edge>
    <edge id=":J18_0" function="internal">
        <lane id=":J18_0_0" index="0" speed="6.07" length="8.23" shape="-205.39,-26.15 -205.16,-28.42 -204.25,-30.01 -202.66,-30.92 -200.39,-31.15"/>
    </edge>
    <edge id=":J18_1" function="internal">
        <lane id=":J18_1_0" index="0" speed="3.90" length="2.74" shape="-200.53,-27.95 -201.29,-27.87 -201.82,-27.57 -202.12,-27.04 -202.20,-26.29"/>
    </edge>
    <edge id=":J2_0" function="internal">
        <lane id=":J2_0_0" index="0" speed="6.93" length="12.18" shape="70.34,-30.46 69.45,-34.35 67.90,-36.80 65.71,-37.81 62.86,-37.37"/>
    </edge>
    <edge id=":J2_1" function="internal">
        <lane id=":J2_1_0" index="0" speed="8.60" length="17.90" shape="70.34,-30.46 70.24,-36.15 71.56,-40.24 74.28,-42.72 78.42,-43.60"/>
    </edge>
    <edge id=":J2_2" function="internal">
        <lane id=":J2_2_0" index="0" speed="7.24" length="12.37" shape="78.47,-40.40 75.87,-39.77 74.17,-37.96 73.39,-34.99 73.52,-30.85"/>
    </edge>
    <edge id=":J2_3" function="internal">
        <lane id=":J2_3_0" index="0" speed="13.89" length="16.03" shape="78.47,-40.40 73.73,-40.25 70.49,-39.86 67.34,-38.98 62.86,-37.37"/>
    </edge>
    <edge id=":J2_4" function="internal">
        <lane id=":J2_4_0" index="0" speed="13.89" length="17.10" shape="61.77,-40.38 66.54,-42.09 69.90,-43.03 73.36,-43.45 78.42,-43.60"/>
    </edge>
    <edge id=":J2_5" function="internal">
        <lane id=":J2_5_0" index="0" speed="8.35" length="4.16" shape="61.77,-40.38 65.87,-41.09"/>
    </edge>
    <edge id=":J2_6" function="internal">
        <lane id=":J2_6_0" index="0" speed="8.35" length="14.05" shape="65.87,-41.09 66.30,-41.17 69.76,-39.84 72.17,-36.40 73.52,-30.85"/>
    </edge>
    <edge id=":J27_0" function="internal">
        <lane id=":J27_0_0" index="0" speed="13.89" length="17.10" shape="85.42,15.85 81.93,13.66 77.85,11.69 73.61,10.36 69.62,10.07"/>
    </edge>
    <edge id=":J27_1" function="internal">
        <lane id=":J27_1_0" index="0" speed="13.82" length="19.40" shape="85.42,15.85 80.89,12.20 77.51,8.46 75.28,4.61 74.21,0.67"/>
    </edge>
    <edge id=":J27_2" function="internal">
        <lane id=":J27_2_0" index="0" speed="7.43" length="7.07" shape="85.42,15.85 80.78,11.74 80.50,10.92"/>
    </edge>
    <edge id=":J27_12" function="internal">
        <lane id=":J27_12_0" index="0" speed="7.43" length="12.32" shape="80.50,10.92 79.67,8.43 82.10,5.93 88.07,4.23"/>
    </edge>
    <edge id=":J27_3" function="internal">
        <lane id=":J27_3_0" index="0" speed="5.47" length="9.76" shape="88.60,7.39 85.59,8.24 84.37,9.50 84.93,11.17 87.27,13.24"/>
    </edge>
    <edge id=":J27_4" function="internal">
        <lane id=":J27_4_0" index="0" speed="13.89" length="19.17" shape="88.60,7.39 69.62,10.07"/>
    </edge>
    <edge id=":J27_5" function="internal">
        <lane id=":J27_5_0" index="0" speed="8.83" length="6.59" shape="88.60,7.39 82.72,7.80 82.04,7.65"/>
    </edge>
    <edge id=":J27_13" function="internal">
        <lane id=":J27_13_0" index="0" speed="8.83" length="11.46" shape="82.04,7.65 78.36,6.82 75.52,4.44 74.21,0.67"/>
    </edge>
    <edge id=":J27_6" function="internal">
        <lane id=":J27_6_0" index="0" speed="7.52" length="12.80" shape="77.38,0.27 78.31,2.63 80.41,4.08 83.66,4.61 88.07,4.23"/>
    </edge>
    <edge id=":J27_7" function="internal">
        <lane id=":J27_7_0" index="0" speed="12.86" length="16.74" shape="77.38,0.27 78.31,3.55 80.26,6.80 83.25,10.03 87.27,13.24"/>
    </edge>
    <edge id=":J27_8" function="internal">
        <lane id=":J27_8_0" index="0" speed="7.97" length="2.52" shape="77.38,0.27 77.34,2.79"/>
    </edge>
    <edge id=":J27_14" function="internal">
        <lane id=":J27_14_0" index="0" speed="7.97" length="11.82" shape="77.34,2.79 77.31,4.22 76.00,7.17 73.43,9.12 69.62,10.07"/>
    </edge>
    <edge id=":J27_9" function="internal">
        <lane id=":J27_9_0" index="0" speed="6.47" length="9.08" shape="69.30,6.88 71.71,6.28 73.33,5.05 74.16,3.18 74.21,0.67"/>
    </edge>
    <edge id=":J27_10" function="internal">
        <lane id=":J27_10_0" index="0" speed="13.89" length="18.96" shape="69.30,6.88 88.07,4.23"/>
    </edge>
    <edge id=":J27_11" function="internal">
        <lane id=":J27_11_0" index="0" speed="13.89" length="3.20" shape="69.30,6.88 72.49,7.16"/>
    </edge>
    <edge id=":J27_15" function="internal">
        <lane id=":J27_15_0" index="0" speed="13.89" length="16.10" shape="72.49,7.16 73.63,7.26 78.62,8.79 83.43,10.96 87.27,13.24"/>
    </edge>
    <edge id=":J28_0" function="internal">
        <lane id=":J28_0_0" index="0" speed="8.40" length="11.15" shape="57.98,11.23 55.64,11.90 53.67,13.40 52.07,15.74 50.84,18.91"/>
    </edge>
    <edge id=":J28_1" function="internal">
        <lane id=":J28_1_0" index="0" speed="13.89" length="14.78" shape="57.98,11.23 43.25,12.39"/>
    </edge>
    <edge id=":J28_2" function="internal">
        <lane id=":J28_2_0" index="0" speed="13.89" length="14.66" shape="43.05,9.20 57.66,8.04"/>
    </edge>
    <edge id=":J28_3" function="internal">
        <lane id=":J28_3_0" index="0" speed="7.53" length="4.40" shape="43.05,9.20 47.44,9.54"/>
    </edge>
    <edge id=":J28_6" function="internal">
        <lane id=":J28_6_0" index="0" speed="7.53" length="11.32" shape="47.44,9.54 47.59,9.55 50.40,11.28 51.49,14.40 50.84,18.91"/>
    </edge>
    <edge id=":J28_4" function="internal">
        <lane id=":J28_4_0" index="0" speed="5.89" length="9.11" shape="47.77,18.02 48.14,15.41 47.51,13.60 45.88,12.60 43.25,12.39"/>
    </edge>
    <edge id=":J28_5" function="internal">
        <lane id=":J28_5_0" index="0" speed="9.65" length="14.97" shape="47.77,18.02 49.39,13.93 51.59,10.90 54.34,8.94 57.66,8.04"/>
    </edge>
    <edge id=":J29_0" function="internal">
        <lane id=":J29_0_0" index="0" speed="3.90" length="2.80" shape="110.30,5.58 110.15,4.82 109.79,4.31 109.22,4.07 108.44,4.09"/>
    </edge>
    <edge id=":J29_1" function="internal">
        <lane id=":J29_1_0" index="0" speed="6.07" length="8.39" shape="107.91,0.93 110.25,0.88 111.96,1.61 113.04,3.12 113.50,5.41"/>
    </edge>
    <edge id=":J30_0" function="internal">
        <lane id=":J30_0_0" index="0" speed="8.24" length="14.63" shape="112.32,40.76 111.38,38.38 109.01,36.73 105.20,35.83 99.94,35.68"/>
    </edge>
    <edge id=":J30_1" function="internal">
        <lane id=":J30_1_0" index="0" speed="12.80" length="17.94" shape="112.32,40.76 111.45,37.55 109.35,34.20 106.00,30.73 101.42,27.12"/>
    </edge>
    <edge id=":J30_2" function="internal">
        <lane id=":J30_2_0" index="0" speed="13.89" length="17.70" shape="112.32,40.76 111.22,23.10"/>
    </edge>
    <edge id=":J30_3" function="internal">
        <lane id=":J30_3_0" index="0" speed="13.89" length="17.62" shape="114.41,22.93 115.51,40.52"/>
    </edge>
    <edge id=":J30_4" function="internal">
        <lane id=":J30_4_0" index="0" speed="9.78" length="3.88" shape="114.41,22.93 113.94,26.79"/>
    </edge>
    <edge id=":J30_5" function="internal">
        <lane id=":J30_5_0" index="0" speed="7.74" length="4.45" shape="114.41,22.93 113.98,27.36"/>
    </edge>
    <edge id=":J30_12" function="internal">
        <lane id=":J30_12_0" index="0" speed="9.78" length="18.11" shape="113.94,26.79 113.75,28.30 111.11,32.22 106.51,34.68 99.94,35.68"/>
    </edge>
    <edge id=":J30_13" function="internal">
        <lane id=":J30_13_0" index="0" speed="7.74" length="15.50" shape="113.98,27.36 113.87,28.39 111.53,30.91 107.37,30.49 101.42,27.12"/>
    </edge>
    <edge id=":J30_6" function="internal">
        <lane id=":J30_6_0" index="0" speed="6.03" length="11.48" shape="103.26,24.51 106.88,26.62 109.42,27.10 110.86,25.92 111.22,23.10"/>
    </edge>
    <edge id=":J30_7" function="internal">
        <lane id=":J30_7_0" index="0" speed="13.74" length="20.74" shape="103.26,24.51 108.39,28.59 112.15,32.61 114.52,36.59 115.51,40.52"/>
    </edge>
    <edge id=":J30_8" function="internal">
        <lane id=":J30_8_0" index="0" speed="7.57" length="21.47" shape="103.26,24.51 108.64,29.15 109.89,32.55 106.98,34.73 99.94,35.68"/>
    </edge>
    <edge id=":J30_9" function="internal">
        <lane id=":J30_9_0" index="0" speed="5.46" length="10.30" shape="99.82,32.48 103.20,32.03 104.59,30.98 104.00,29.35 101.42,27.12"/>
    </edge>
    <edge id=":J30_10" function="internal">
        <lane id=":J30_10_0" index="0" speed="8.61" length="16.79" shape="99.82,32.48 104.98,31.73 108.60,29.92 110.68,27.04 111.22,23.10"/>
    </edge>
    <edge id=":J30_11" function="internal">
        <lane id=":J30_11_0" index="0" speed="9.44" length="19.54" shape="99.82,32.48 106.44,32.78 111.26,34.22 114.28,36.80 115.51,40.52"/>
    </edge>
    <edge id=":J31_0" function="internal">
        <lane id=":J31_0_0" index="0" speed="13.89" length="14.74" shape="52.67,37.38 37.94,37.92"/>
    </edge>
    <edge id=":J31_1" function="internal">
        <lane id=":J31_1_0" index="0" speed="7.55" length="4.49" shape="52.67,37.38 48.20,36.91"/>
    </edge>
    <edge id=":J31_6" function="internal">
        <lane id=":J31_6_0" index="0" speed="7.55" length="11.09" shape="48.20,36.91 45.44,35.12 44.37,32.00 45.00,27.55"/>
    </edge>
    <edge id=":J31_2" function="internal">
        <lane id=":J31_2_0" index="0" speed="5.93" length="9.10" shape="48.08,28.44 47.71,31.04 48.33,32.86 49.94,33.91 52.55,34.19"/>
    </edge>
    <edge id=":J31_3" function="internal">
        <lane id=":J31_3_0" index="0" speed="9.34" length="14.91" shape="48.08,28.44 46.44,32.49 44.21,35.41 41.37,37.22 37.94,37.92"/>
    </edge>
    <edge id=":J31_4" function="internal">
        <lane id=":J31_4_0" index="0" speed="8.05" length="10.88" shape="37.82,34.72 40.20,34.20 42.19,32.84 43.79,30.62 45.00,27.55"/>
    </edge>
    <edge id=":J31_5" function="internal">
        <lane id=":J31_5_0" index="0" speed="13.89" length="14.74" shape="37.82,34.72 52.55,34.19"/>
    </edge>
    <edge id=":J33_0" function="internal">
        <lane id=":J33_0_0" index="0" speed="6.22" length="11.61" shape="4.13,39.15 0.64,38.82 -1.25,37.52 -1.53,35.24 -0.22,31.99"/>
    </edge>
    <edge id=":J33_1" function="internal">
        <lane id=":J33_1_0" index="0" speed="3.98" length="3.87" shape="2.57,33.56 2.13,34.65 2.22,35.41 2.85,35.84 4.02,35.95"/>
    </edge>
    <edge id=":J34_0" function="internal">
        <lane id=":J34_0_0" index="0" speed="4.05" length="1.59" shape="14.35,14.25 13.94,14.32 13.59,14.48 13.30,14.72 13.06,15.05"/>
    </edge>
    <edge id=":J34_1" function="internal">
        <lane id=":J34_1_0" index="0" speed="6.35" length="4.77" shape="10.28,13.48 11.00,12.48 11.88,11.74 12.93,11.27 14.14,11.05"/>
    </edge>
    <edge id=":J35_0" function="internal">
        <lane id=":J35_0_0" index="0" speed="3.96" length="1.97" shape="136.63,-82.93 136.39,-83.39 136.05,-83.72 135.63,-83.91 135.11,-83.97"/>
    </edge>
    <edge id=":J35_1" function="internal">
        <lane id=":J35_1_0" index="0" speed="6.18" length="5.91" shape="135.06,-87.17 136.61,-86.99 137.88,-86.42 138.89,-85.44 139.62,-84.07"/>
    </edge>
    <edge id=":J36_0" function="internal">
        <lane id=":J36_0_0" index="0" speed="13.89" length="14.06" shape="78.14,-83.09 74.54,-82.98 71.12,-82.76 67.71,-82.44 64.13,-82.02"/>
    </edge>
    <edge id=":J36_1" function="internal">
        <lane id=":J36_1_0" index="0" speed="9.15" length="3.62" shape="78.14,-83.09 74.67,-83.58 74.57,-83.63"/>
    </edge>
    <edge id=":J36_6" function="internal">
        <lane id=":J36_6_0" index="0" speed="9.15" length="10.83" shape="74.57,-83.63 71.78,-85.15 69.48,-87.82 67.75,-91.58"/>
    </edge>
    <edge id=":J36_2" function="internal">
        <lane id=":J36_2_0" index="0" speed="7.83" length="10.38" shape="70.79,-92.59 72.04,-89.80 73.68,-87.82 75.69,-86.65 78.09,-86.29"/>
    </edge>
    <edge id=":J36_3" function="internal">
        <lane id=":J36_3_0" index="0" speed="7.69" length="15.00" shape="70.79,-92.59 71.54,-88.43 70.68,-85.28 68.21,-83.14 64.13,-82.02"/>
    </edge>
    <edge id=":J36_4" function="internal">
        <lane id=":J36_4_0" index="0" speed="6.12" length="9.06" shape="63.73,-85.20 66.20,-85.87 67.69,-87.16 68.21,-89.07 67.75,-91.58"/>
    </edge>
    <edge id=":J36_5" function="internal">
        <lane id=":J36_5_0" index="0" speed="13.89" length="14.41" shape="63.73,-85.20 67.36,-85.62 70.90,-85.95 74.43,-86.17 78.09,-86.29"/>
    </edge>
    <edge id=":J37_0" function="internal">
        <lane id=":J37_0_0" index="0" speed="13.89" length="16.08" shape="17.81,-76.23 1.84,-74.28"/>
    </edge>
    <edge id=":J37_1" function="internal">
        <lane id=":J37_1_0" index="0" speed="7.38" length="5.40" shape="17.81,-76.23 12.41,-76.23"/>
    </edge>
    <edge id=":J37_6" function="internal">
        <lane id=":J37_6_0" index="0" speed="7.38" length="12.45" shape="12.41,-76.23 12.29,-76.23 9.33,-77.92 8.94,-81.30 11.11,-86.37"/>
    </edge>
    <edge id=":J37_2" function="internal">
        <lane id=":J37_2_0" index="0" speed="5.55" length="9.42" shape="13.88,-84.76 12.73,-82.08 12.94,-80.30 14.50,-79.40 17.41,-79.41"/>
    </edge>
    <edge id=":J37_3" function="internal">
        <lane id=":J37_3_0" index="0" speed="11.86" length="16.48" shape="13.88,-84.76 11.00,-80.45 8.03,-77.27 4.98,-75.22 1.84,-74.28"/>
    </edge>
    <edge id=":J37_4" function="internal">
        <lane id=":J37_4_0" index="0" speed="10.78" length="13.53" shape="1.47,-77.46 3.86,-78.23 6.27,-79.97 8.68,-82.68 11.11,-86.37"/>
    </edge>
    <edge id=":J37_5" function="internal">
        <lane id=":J37_5_0" index="0" speed="13.89" length="16.06" shape="1.47,-77.46 17.41,-79.41"/>
    </edge>
    <edge id=":J38_0" function="internal">
        <lane id=":J38_0_0" index="0" speed="13.89" length="12.85" shape="-27.59,-70.86 -31.00,-70.44 -33.97,-69.85 -36.80,-68.87 -39.78,-67.24"/>
    </edge>
    <edge id=":J38_1" function="internal">
        <lane id=":J38_1_0" index="0" speed="7.55" length="4.16" shape="-27.59,-70.86 -31.75,-70.97"/>
    </edge>
    <edge id=":J38_6" function="internal">
        <lane id=":J38_6_0" index="0" speed="7.55" length="11.43" shape="-31.75,-70.97 -32.08,-70.98 -34.98,-72.55 -36.29,-75.58 -36.01,-80.06"/>
    </edge>
    <edge id=":J38_2" function="internal">
        <lane id=":J38_2_0" index="0" speed="5.93" length="9.10" shape="-32.87,-79.41 -33.04,-76.79 -32.27,-75.03 -30.58,-74.11 -27.96,-74.04"/>
    </edge>
    <edge id=":J38_3" function="internal">
        <lane id=":J38_3_0" index="0" speed="12.34" length="14.34" shape="-32.87,-79.41 -34.00,-75.31 -35.52,-71.91 -37.45,-69.22 -39.78,-67.24"/>
    </edge>
    <edge id=":J38_4" function="internal">
        <lane id=":J38_4_0" index="0" speed="11.23" length="11.80" shape="-41.51,-69.94 -39.69,-71.52 -38.17,-73.73 -36.94,-76.58 -36.01,-80.06"/>
    </edge>
    <edge id=":J38_5" function="internal">
        <lane id=":J38_5_0" index="0" speed="13.89" length="14.29" shape="-41.51,-69.94 -38.32,-71.64 -35.02,-72.79 -31.58,-73.54 -27.96,-74.04"/>
    </edge>
    <edge id=":J39_0" function="internal">
        <lane id=":J39_0_0" index="0" speed="6.56" length="7.75" shape="-24.23,-99.13 -26.28,-98.85 -27.88,-98.01 -29.02,-96.62 -29.71,-94.67"/>
    </edge>
    <edge id=":J39_1" function="internal">
        <lane id=":J39_1_0" index="0" speed="13.89" length="11.93" shape="-24.23,-99.13 -27.51,-99.25 -30.16,-99.73 -32.64,-100.75 -35.43,-102.47"/>
    </edge>
    <edge id=":J39_2" function="internal">
        <lane id=":J39_2_0" index="0" speed="12.89" length="10.05" shape="-33.61,-105.10 -31.13,-103.50 -29.24,-102.67 -27.19,-102.37 -24.23,-102.33"/>
    </edge>
    <edge id=":J39_3" function="internal">
        <lane id=":J39_3_0" index="0" speed="8.73" length="3.26" shape="-33.61,-105.10 -31.38,-103.08 -31.25,-102.86"/>
    </edge>
    <edge id=":J39_6" function="internal">
        <lane id=":J39_6_0" index="0" speed="8.73" length="8.60" shape="-31.25,-102.86 -29.98,-100.66 -29.43,-97.86 -29.71,-94.67"/>
    </edge>
    <edge id=":J39_4" function="internal">
        <lane id=":J39_4_0" index="0" speed="7.30" length="8.10" shape="-32.85,-95.32 -32.64,-97.52 -33.00,-99.45 -33.93,-101.10 -35.43,-102.47"/>
    </edge>
    <edge id=":J39_5" function="internal">
        <lane id=":J39_5_0" index="0" speed="8.06" length="12.18" shape="-32.85,-95.32 -31.76,-98.38 -29.96,-100.58 -27.45,-101.89 -24.23,-102.33"/>
    </edge>
    <edge id=":J4_0" function="internal">
        <lane id=":J4_0_0" index="0" speed="13.89" length="14.23" shape="157.74,-40.01 153.74,-41.25 150.89,-41.67 147.96,-41.63 143.73,-41.48"/>
    </edge>
    <edge id=":J4_1" function="internal">
        <lane id=":J4_1_0" index="0" speed="12.79" length="3.15" shape="157.74,-40.01 155.03,-41.62"/>
    </edge>
    <edge id=":J4_6" function="internal">
        <lane id=":J4_6_0" index="0" speed="12.79" length="14.40" shape="155.03,-41.62 152.45,-44.46 150.00,-48.53 147.68,-53.85"/>
    </edge>
    <edge id=":J4_2" function="internal">
        <lane id=":J4_2_0" index="0" speed="11.78" length="14.80" shape="150.67,-54.99 152.67,-50.31 154.70,-46.76 156.74,-44.33 158.81,-43.03"/>
    </edge>
    <edge id=":J4_3" function="internal">
        <lane id=":J4_3_0" index="0" speed="8.23" length="19.07" shape="150.67,-54.99 152.13,-49.15 151.46,-44.96 148.66,-42.40 143.73,-41.48"/>
    </edge>
    <edge id=":J4_4" function="internal">
        <lane id=":J4_4_0" index="0" speed="6.77" length="12.48" shape="143.68,-44.68 146.72,-45.30 148.40,-47.03 148.72,-49.89 147.68,-53.85"/>
    </edge>
    <edge id=":J4_5" function="internal">
        <lane id=":J4_5_0" index="0" speed="13.89" length="15.37" shape="143.68,-44.68 148.25,-44.83 151.41,-44.85 154.49,-44.38 158.81,-43.03"/>
    </edge>
    <edge id=":J40_0" function="internal">
        <lane id=":J40_0_0" index="0" speed="10.56" length="15.63" shape="30.86,-98.92 26.82,-98.54 23.31,-97.20 20.34,-94.91 17.90,-91.66"/>
    </edge>
    <edge id=":J40_1" function="internal">
        <lane id=":J40_1_0" index="0" speed="13.89" length="19.10" shape="30.86,-98.92 11.77,-99.13"/>
    </edge>
    <edge id=":J40_2" function="internal">
        <lane id=":J40_2_0" index="0" speed="7.40" length="4.86" shape="30.86,-98.92 26.07,-99.67"/>
    </edge>
    <edge id=":J40_12" function="internal">
        <lane id=":J40_12_0" index="0" speed="7.40" length="11.97" shape="26.07,-99.67 25.87,-99.70 23.22,-101.76 22.92,-105.10 24.96,-109.72"/>
    </edge>
    <edge id=":J40_3" function="internal">
        <lane id=":J40_3_0" index="0" speed="5.67" length="9.24" shape="27.69,-108.05 26.57,-105.51 26.74,-103.68 28.19,-102.54 30.94,-102.12"/>
    </edge>
    <edge id=":J40_4" function="internal">
        <lane id=":J40_4_0" index="0" speed="13.89" length="19.10" shape="27.69,-108.05 17.90,-91.66"/>
    </edge>
    <edge id=":J40_5" function="internal">
        <lane id=":J40_5_0" index="0" speed="11.85" length="5.13" shape="27.69,-108.05 24.79,-104.78 24.17,-104.35"/>
    </edge>
    <edge id=":J40_13" function="internal">
        <lane id=":J40_13_0" index="0" speed="11.85" length="13.66" shape="24.17,-104.35 20.67,-101.92 16.08,-99.90 11.77,-99.13"/>
    </edge>